19
Iteration:  4534
 C        -3.088241        -1.860781         0.404268
 C        -1.928871        -0.843869         0.474711
 C        -1.781720         0.415833        -0.308648
 C        -0.933427        -0.314478        -1.367975
 C        -0.494819        -1.124353        -0.052254
 C         0.257819        -2.397259        -0.047952
 C         0.169948         0.011181         0.702225
 O         1.071791        -0.111335         1.474598
 O        -0.447911         1.142013         0.493381
 H        -2.584419        -2.803049         0.616320
 H        -3.956451        -1.723680         0.998982
 H        -3.425863        -2.076758        -0.651868
 H        -1.969146        -0.501639         1.547234
 H        -2.430148         1.280195        -0.467894
 H        -1.523386        -1.006033        -1.996452
 H        -0.150526         0.262416        -1.897431
 H        -0.255849        -3.127955        -0.684673
 H         1.271306        -2.229793        -0.517003
 H         0.314301        -2.862851         0.969575
