19
Iteration:  1215charge 0 multiplicity 1
 C        -3.300907        -1.440931         0.828882
 C        -1.877226        -0.763108         0.688578
 C        -1.694539         0.399288        -0.377956
 C        -1.102802        -0.592350        -1.355242
 C        -0.463605        -1.214393        -0.028713
 C         0.175811        -2.576078         0.124453
 C         0.302957        -0.045738         0.536663
 O         1.416412         0.040315         0.969757
 O        -0.554882         1.032112         0.367375
 H        -3.561871        -2.181906         0.066301
 H        -3.326104        -1.991984         1.746104
 H        -4.034370        -0.602077         0.940938
 H        -1.787285        -0.200756         1.653819
 H        -2.516185         1.102684        -0.421436
 H        -1.852812        -1.266929        -1.883606
 H        -0.526083        -0.124863        -2.166638
 H         0.856709        -2.940172        -0.720429
 H         0.813775        -2.477972         0.986156
 H        -0.629774        -3.342930         0.433135
