19
Iteration:  3211
 C        -3.182587        -1.680797        -0.082060
 C        -2.080914        -0.858375         0.520641
 C        -1.689359         0.462877        -0.267702
 C        -0.758105        -0.478160        -1.224872
 C        -0.580291        -1.233136         0.140610
 C         0.126878        -2.473681         0.452994
 C         0.243615        -0.050693         0.726143
 O         1.362451         0.149006         1.139425
 O        -0.633056         1.033822         0.465497
 H        -4.063196        -1.747934         0.575859
 H        -3.663186        -1.197591        -0.948672
 H        -2.770095        -2.554393        -0.659500
 H        -2.235671        -0.796347         1.600272
 H        -2.509312         1.186797        -0.603930
 H        -1.182610        -1.194395        -2.004209
 H         0.257904        -0.106179        -1.434615
 H         0.014383        -3.307883        -0.206256
 H         1.235452        -2.303303         0.409434
 H        -0.021485        -2.820833         1.453495
