19
Iteration:    47charge 0 multiplicity 1
 C        -2.738725        -1.599152         1.612339
 C        -1.628437        -0.640874         1.155231
 C        -1.853030         0.508947         0.090162
 C        -1.600577        -0.499934        -1.122151
 C        -0.651900        -1.141766        -0.015169
 C        -0.125808        -2.559288        -0.082917
 C         0.335568        -0.096494         0.062145
 O         1.547224        -0.111544         0.065170
 O        -0.447247         1.063138         0.114243
 H        -2.861861        -1.530075         2.728440
 H        -3.729200        -1.319408         1.282445
 H        -2.609951        -2.692874         1.409694
 H        -1.140956        -0.243594         2.023955
 H        -2.575300         1.357264         0.123411
 H        -2.410798        -1.161099        -1.599468
 H        -1.015498        -0.112112        -1.994292
 H         0.849057        -2.727255        -0.317772
 H        -0.370713        -3.036259         0.874212
 H        -0.877969        -3.083287        -0.807407
