19
Iteration:  4365charge 0 multiplicity 1
 C        -3.090028        -1.782642         0.028169
 C        -1.918269        -0.894536         0.647861
 C        -1.782513         0.463701        -0.213733
 C        -0.945790        -0.397841        -1.155112
 C        -0.490648        -1.200329         0.059445
 C         0.130546        -2.580382         0.012982
 C         0.307606         0.045723         0.702610
 O         1.327562         0.168255         1.241097
 O        -0.656710         1.088629         0.598466
 H        -3.060948        -2.881412         0.195704
 H        -4.111818        -1.556639         0.460871
 H        -3.145808        -1.621985        -1.028795
 H        -1.886425        -0.752970         1.739842
 H        -2.489992         1.170836        -0.670224
 H        -1.606750        -1.019993        -1.829490
 H        -0.139164         0.061108        -1.866438
 H        -0.201326        -3.101683        -1.023511
 H         1.281858        -2.477943        -0.063078
 H        -0.217143        -3.427714         0.729469
