19
Iteration:  4695charge 0 multiplicity 1
 C        -3.060537        -1.843013         0.013662
 C        -1.939517        -0.866414         0.574472
 C        -1.755073         0.495516        -0.126720
 C        -1.038088        -0.305762        -1.259969
 C        -0.487237        -1.124901         0.015949
 C         0.225753        -2.471202         0.135343
 C         0.233425        -0.065082         0.681671
 O         1.221241         0.026343         1.290193
 O        -0.538363         1.081162         0.528896
 H        -2.999087        -2.846920         0.436293
 H        -4.007644        -1.345083         0.360644
 H        -3.007010        -1.877073        -1.116255
 H        -1.844112        -1.023705         1.685762
 H        -2.634156         1.116284        -0.311108
 H        -1.412086        -0.997068        -2.049003
 H        -0.368370         0.375248        -1.820517
 H        -0.602214        -3.167591         0.037453
 H         0.833533        -2.722439        -0.750096
 H         0.656179        -2.720388         1.065910
