19
Iteration:  2065charge 0 multiplicity 1
 C        -2.944255        -1.715011        -0.079431
 C        -2.090476        -0.593652         0.451531
 C        -1.615944         0.458789        -0.539274
 C        -0.763839        -0.604667        -1.259054
 C        -0.636065        -1.188677         0.210852
 C         0.012238        -2.534801         0.655956
 C         0.164449         0.057209         0.742650
 O         1.115905        -0.006683         1.493709
 O        -0.416446         1.065876         0.161158
 H        -2.558008        -2.215693        -1.017606
 H        -2.896297        -2.501214         0.680544
 H        -4.080477        -1.650343        -0.255246
 H        -2.499702        -0.225069         1.397464
 H        -2.145492         1.235480        -1.053664
 H        -1.151275        -1.258155        -2.113731
 H         0.028398        -0.010472        -1.636082
 H        -0.775492        -3.316803         0.727808
 H         0.730273        -2.796848        -0.064683
 H         0.326906        -2.418261         1.707660
