19
Iteration:  3933
 C        -3.064019        -1.713563        -0.033510
 C        -2.018654        -0.917032         0.630007
 C        -1.779825         0.376224        -0.093365
 C        -0.930555        -0.369959        -1.286422
 C        -0.518765        -1.170738         0.135519
 C         0.075475        -2.559971         0.144472
 C         0.324538         0.043488         0.708469
 O         1.467831         0.155055         0.943508
 O        -0.732876         1.031408         0.753463
 H        -2.889103        -2.714442         0.362327
 H        -4.064069        -1.350370         0.142960
 H        -2.885942        -1.789250        -1.103155
 H        -2.163698        -0.672652         1.687473
 H        -2.556166         1.096808        -0.277428
 H        -1.412224        -0.912022        -2.193384
 H        -0.014052         0.192156        -1.575491
 H         1.078429        -2.449344        -0.422398
 H         0.338767        -2.997953         1.160915
 H        -0.564780        -3.307642        -0.339145
