19
Iteration:  1161
 C        -3.107458        -1.585175         0.608891
 C        -1.955234        -0.674547         0.882795
 C        -1.780081         0.476553        -0.236977
 C        -1.271704        -0.612534        -1.171013
 C        -0.560117        -1.149166         0.118955
 C         0.041534        -2.557112         0.125122
 C         0.387539        -0.013342         0.459152
 O         1.495015        -0.021867         0.973019
 O        -0.411450         1.097344         0.127677
 H        -2.649071        -2.531737         0.210399
 H        -3.404203        -1.937317         1.582497
 H        -3.939567        -1.324207        -0.090752
 H        -2.011042        -0.457084         1.976353
 H        -2.522139         1.209704        -0.510588
 H        -2.066102        -1.382826        -1.351994
 H        -0.728652        -0.361009        -2.071881
 H         1.027155        -2.499362         0.636701
 H        -0.553194        -3.321874         0.547395
 H         0.156949        -2.875538        -0.952799
