19
Iteration:  1083charge 0 multiplicity 1
 C        -3.240780        -1.539983         0.811809
 C        -1.916711        -0.697661         0.687476
 C        -1.650969         0.473945        -0.218247
 C        -1.112523        -0.569501        -1.203462
 C        -0.605152        -1.251386         0.046306
 C         0.119905        -2.589336         0.182595
 C         0.298463        -0.060943         0.466180
 O         1.467567         0.065306         0.660180
 O        -0.505011         1.048505         0.391344
 H        -2.970618        -2.580499         0.714654
 H        -3.767401        -1.270526         1.732435
 H        -4.009725        -1.376849         0.039595
 H        -1.844664        -0.420539         1.759825
 H        -2.421829         1.139355        -0.580025
 H        -1.907480        -1.128578        -1.767932
 H        -0.301062        -0.225529        -1.838171
 H        -0.589931        -3.415791         0.440403
 H         0.604926        -2.898199        -0.662246
 H         0.797255        -2.488127         1.087327
