19
Iteration:   272
 C        -3.042971        -1.459532         1.601615
 C        -1.732750        -0.622665         1.120009
 C        -1.829991         0.469663        -0.045313
 C        -1.489758        -0.530915        -1.215716
 C        -0.583708        -1.271777        -0.102272
 C         0.048851        -2.642097        -0.062235
 C         0.349285        -0.022570         0.150247
 O         1.584117        -0.106363         0.273502
 O        -0.506152         1.036502         0.132519
 H        -3.235205        -2.118423         0.754303
 H        -2.942277        -1.962193         2.555539
 H        -3.842411        -0.703838         1.579637
 H        -1.182618        -0.139584         1.960210
 H        -2.543585         1.348973        -0.137848
 H        -2.308487        -1.173324        -1.542207
 H        -0.933680        -0.074137        -2.027640
 H         1.137256        -2.387009        -0.200912
 H        -0.029677        -3.085284         0.936255
 H        -0.297004        -3.301603        -0.732752
