19
Iteration:  4422
 C        -3.013976        -1.850123        -0.051055
 C        -2.018388        -0.835010         0.558540
 C        -1.754266         0.428354        -0.119716
 C        -0.921008        -0.283658        -1.354279
 C        -0.535016        -1.164382         0.007639
 C         0.173289        -2.490079         0.201790
 C         0.217223         0.003536         0.755381
 O         1.350793        -0.020152         1.063098
 O        -0.683350         1.111286         0.777223
 H        -3.059085        -2.499807         0.815843
 H        -4.011445        -1.415459        -0.244731
 H        -2.691012        -2.501563        -0.833415
 H        -2.065907        -0.629975         1.637530
 H        -2.504054         1.211034        -0.430301
 H        -1.564235        -0.929476        -2.051919
 H        -0.123724         0.401533        -1.855735
 H        -0.452713        -3.495084         0.074117
 H         0.930608        -2.507943        -0.662515
 H         0.769445        -2.456951         1.183449
