19
Iteration:  1147charge 0 multiplicity 1
 C        -3.052034        -1.743892         0.569539
 C        -1.862918        -0.590859         0.827748
 C        -1.639500         0.487516        -0.165424
 C        -1.336145        -0.689487        -1.143020
 C        -0.625906        -1.188509         0.137259
 C        -0.069371        -2.536501         0.140966
 C         0.361626        -0.014063         0.433359
 O         1.463592         0.055582         0.919067
 O        -0.401001         1.116232         0.176070
 H        -2.752236        -2.631702         0.137812
 H        -3.656647        -1.986616         1.449822
 H        -3.718820        -1.204112        -0.074747
 H        -1.620452        -0.186205         1.807573
 H        -2.350592         1.322226        -0.295211
 H        -2.196584        -1.203335        -1.635626
 H        -0.618007        -0.483979        -1.945327
 H         0.636961        -2.679958         1.022662
 H        -0.853762        -3.289274         0.261870
 H         0.519709        -2.755281        -0.826145
