19
Iteration:  1287charge 0 multiplicity 1
 C        -3.122936        -1.699179         0.503469
 C        -1.893257        -0.688566         0.715221
 C        -1.788409         0.403383        -0.275820
 C        -1.207157        -0.527451        -1.296606
 C        -0.551161        -1.160399         0.111205
 C        -0.057633        -2.586778         0.331966
 C         0.395953         0.011764         0.449013
 O         1.467532         0.034007         0.985918
 O        -0.410614         1.154282         0.289895
 H        -3.763409        -1.457726        -0.368039
 H        -2.610923        -2.694381         0.168662
 H        -3.644867        -1.858362         1.475026
 H        -1.890936        -0.465101         1.806090
 H        -2.428118         1.256121        -0.429505
 H        -1.872134        -1.359837        -1.682998
 H        -0.501155        -0.280095        -2.089340
 H        -0.881355        -3.163742         0.812532
 H         0.319835        -3.073119        -0.590661
 H         0.756900        -2.603933         1.054755
