19
Iteration:  4783
 C        -3.046766        -1.805071         0.366319
 C        -1.883250        -0.800440         0.588012
 C        -1.675883         0.415555        -0.226299
 C        -0.916060        -0.362559        -1.305864
 C        -0.422861        -1.088266        -0.059607
 C         0.257026        -2.485937        -0.205374
 C         0.210846         0.004082         0.672196
 O         1.043137        -0.055674         1.508200
 O        -0.624999         1.105954         0.432028
 H        -3.182447        -2.640181         1.091551
 H        -3.980210        -1.206591         0.519173
 H        -3.204244        -2.165401        -0.711555
 H        -1.835081        -0.672593         1.720646
 H        -2.460560         1.164870        -0.345503
 H        -1.550084        -1.045457        -1.889999
 H        -0.215760         0.120237        -2.006404
 H        -0.323178        -3.176819        -0.759481
 H         1.333634        -2.561387        -0.387763
 H         0.132248        -2.810828         0.828629
