19
Iteration:  4447charge 0 multiplicity 1
 C        -3.021483        -1.872981        -0.017201
 C        -2.027713        -0.917161         0.602949
 C        -1.764242         0.493519        -0.139813
 C        -1.017063        -0.348581        -1.220183
 C        -0.495012        -1.138076         0.069393
 C         0.184834        -2.469848         0.029587
 C         0.191645         0.014796         0.671585
 O         1.346327         0.037336         1.252583
 O        -0.593720         1.072141         0.618390
 H        -3.322219        -2.629744         0.709739
 H        -3.748995        -1.153481        -0.291567
 H        -2.783382        -2.361239        -1.020214
 H        -2.185007        -0.614367         1.683382
 H        -2.355903         1.366352        -0.481426
 H        -1.581180        -0.931977        -1.949669
 H        -0.142731         0.128022        -1.643389
 H        -0.552608        -3.199789         0.186570
 H         0.770563        -2.721354        -0.847582
 H         0.932063        -2.437580         0.823555
