19
Iteration:  2163
 C        -3.263108        -1.590294         0.124106
 C        -2.044616        -0.681195         0.419449
 C        -1.480997         0.391103        -0.661214
 C        -0.655594        -0.765183        -1.316484
 C        -0.492940        -1.171564         0.214453
 C         0.174894        -2.470710         0.505331
 C         0.154759         0.040741         0.774113
 O         1.021415         0.021261         1.610039
 O        -0.522458         1.115534         0.140894
 H        -3.262929        -2.175036        -0.816756
 H        -3.477751        -2.224108         0.946826
 H        -4.155877        -0.948211         0.010491
 H        -2.208068        -0.321930         1.460793
 H        -2.077593         1.189501        -1.133223
 H        -1.156339        -1.531670        -2.000394
 H         0.285029        -0.455433        -1.788180
 H        -0.407415        -3.243836        -0.091206
 H         1.222638        -2.377995         0.154722
 H         0.226666        -2.795576         1.575854
