19
Iteration:   929
 C        -3.110944        -1.533644         0.825398
 C        -1.776184        -0.784033         0.876579
 C        -1.747389         0.429821        -0.176429
 C        -1.391943        -0.609310        -1.187085
 C        -0.558605        -1.191674         0.058092
 C         0.042260        -2.522951         0.123764
 C         0.339991        -0.004354         0.352706
 O         1.483036        -0.002766         0.737231
 O        -0.422383         1.102342         0.239129
 H        -3.551498        -1.843155         1.756089
 H        -3.898903        -0.922720         0.258076
 H        -3.147143        -2.471228         0.253425
 H        -1.548266        -0.566598         1.964198
 H        -2.419272         1.350175        -0.346252
 H        -2.218231        -1.271951        -1.295012
 H        -0.946994        -0.341466        -2.187665
 H         0.731042        -2.468895         0.993362
 H        -0.646522        -3.321107         0.205906
 H         0.810724        -2.805428        -0.679132
