19
Iteration:  4442charge 0 multiplicity 1
 C        -3.000639        -1.859613         0.003760
 C        -2.008052        -0.908415         0.545229
 C        -1.732437         0.546510        -0.173354
 C        -1.018665        -0.310192        -1.187430
 C        -0.486243        -1.132124         0.088858
 C         0.198327        -2.433091         0.062534
 C         0.210772        -0.013962         0.712538
 O         1.339669         0.007929         1.188295
 O        -0.651356         1.031070         0.623534
 H        -3.389250        -2.712636         0.585221
 H        -3.866180        -1.195120        -0.326769
 H        -2.609296        -2.319731        -0.879253
 H        -2.109507        -0.737302         1.605985
 H        -2.498856         1.309834        -0.425264
 H        -1.707917        -0.904467        -1.835340
 H        -0.110803         0.098367        -1.726366
 H        -0.574150        -3.295707         0.293364
 H         0.767985        -2.742770        -0.860969
 H         0.813394        -2.455558         1.012478
