19
Iteration:   616
 C        -3.054938        -1.456043         1.108161
 C        -1.792228        -0.679399         0.973625
 C        -1.771812         0.402005        -0.210290
 C        -1.315376        -0.714719        -1.256154
 C        -0.609627        -1.212624        -0.021490
 C        -0.006958        -2.574693         0.157730
 C         0.313987        -0.020540         0.300466
 O         1.493659         0.017589         0.426920
 O        -0.424900         1.072353         0.357245
 H        -3.034335        -2.262787         1.823481
 H        -3.829192        -0.693830         1.454171
 H        -3.226386        -1.917055         0.114094
 H        -1.624248        -0.074254         1.909067
 H        -2.531701         1.183045        -0.469543
 H        -2.189245        -1.309863        -1.397976
 H        -0.678970        -0.439574        -2.164036
 H        -0.768279        -3.275475         0.318675
 H         0.569412        -2.795961        -0.737246
 H         0.756001        -2.448633         0.989823
