19
Iteration:  3544
 C        -3.136082        -1.659006         0.311276
 C        -1.984682        -0.786988         0.541205
 C        -1.700230         0.381754        -0.363240
 C        -0.930488        -0.518762        -1.410939
 C        -0.386467        -1.160074        -0.001609
 C         0.254074        -2.553560        -0.109700
 C         0.246254         0.033825         0.747610
 O         1.145490         0.074928         1.532319
 O        -0.613960         1.088848         0.513216
 H        -3.350794        -2.157780         1.324634
 H        -4.060834        -1.076505         0.196332
 H        -3.125715        -2.471532        -0.518076
 H        -1.884799        -0.466832         1.649777
 H        -2.427592         1.152677        -0.669345
 H        -1.340246        -1.343337        -2.205389
 H        -0.048477        -0.073288        -1.925594
 H         0.795960        -2.660318        -1.095869
 H         0.869789        -2.723255         0.871985
 H        -0.598301        -3.305211         0.126990
