19
Iteration:  2606charge 0 multiplicity 1
 C        -3.310334        -1.584100         0.269476
 C        -1.953256        -0.834539         0.434423
 C        -1.500379         0.423051        -0.667268
 C        -0.699473        -0.663164        -1.422940
 C        -0.450300        -1.185262         0.082981
 C         0.248524        -2.523223         0.532640
 C         0.150496         0.050334         0.702017
 O         0.947174         0.045496         1.655806
 O        -0.492261         1.151272         0.183673
 H        -3.445883        -2.151038        -0.605167
 H        -3.735651        -2.099706         1.131638
 H        -3.971172        -0.783255         0.129185
 H        -2.151441        -0.298594         1.439015
 H        -2.101205         1.126183        -1.374328
 H        -1.415808        -1.395620        -1.895446
 H         0.111627        -0.639781        -2.173625
 H        -0.333537        -3.435045         0.012675
 H         1.256332        -2.531297         0.133777
 H         0.367454        -2.796364         1.646003
