19
Iteration:  2996
 C        -3.066886        -1.790816        -0.047438
 C        -2.008966        -0.840789         0.465219
 C        -1.650757         0.387693        -0.378874
 C        -0.746098        -0.500792        -1.288803
 C        -0.527555        -1.159090         0.120291
 C        -0.059326        -2.500723         0.585431
 C         0.174575         0.033719         0.714699
 O         1.263118         0.110455         1.262554
 O        -0.503127         1.136061         0.365045
 H        -3.400733        -1.670660        -1.017799
 H        -2.718002        -2.817260         0.076670
 H        -3.908381        -1.730635         0.573457
 H        -2.156338        -0.660556         1.549065
 H        -2.374534         1.230621        -0.660262
 H        -1.241192        -1.149352        -2.003218
 H        -0.067775         0.117339        -1.843838
 H        -0.481357        -3.433703         0.078325
 H         1.045773        -2.454123         0.629330
 H        -0.546980        -2.583633         1.574974
