19
Iteration:  1380
 C        -3.160122        -1.537287         0.417834
 C        -1.911869        -0.694780         0.758757
 C        -1.654591         0.399201        -0.272525
 C        -1.149609        -0.621833        -1.256065
 C        -0.493486        -1.234791         0.154205
 C         0.032918        -2.674784         0.224354
 C         0.360775        -0.016171         0.536623
 O         1.387594         0.167153         1.145199
 O        -0.512553         1.080050         0.153209
 H        -4.048700        -1.497465         1.080456
 H        -3.621887        -1.190445        -0.460003
 H        -2.829469        -2.585692         0.269529
 H        -1.873239        -0.389464         1.826555
 H        -2.544752         1.037862        -0.518760
 H        -1.828283        -1.279721        -1.758874
 H        -0.471590        -0.150543        -2.082941
 H         1.125460        -2.570912         0.067979
 H        -0.022892        -2.874345         1.367244
 H        -0.476362        -3.547205        -0.288059
