19
Iteration:  3355charge 0 multiplicity 1
 C        -3.128032        -1.763124         0.240525
 C        -1.921669        -0.792826         0.626198
 C        -1.631504         0.464727        -0.353185
 C        -1.036378        -0.529261        -1.363596
 C        -0.477788        -1.135807         0.053763
 C         0.243955        -2.488669         0.166543
 C         0.232060         0.001004         0.637161
 O         1.022383        -0.030459         1.519145
 O        -0.429172         1.195421         0.264149
 H        -3.974352        -1.209013        -0.115635
 H        -2.872349        -2.418402        -0.659294
 H        -3.429760        -2.401405         1.057728
 H        -1.928613        -0.635730         1.707373
 H        -2.364062         1.269390        -0.389433
 H        -1.560892        -1.167676        -1.961397
 H        -0.225205        -0.129822        -2.000652
 H         1.312396        -2.496520        -0.020917
 H         0.096116        -2.910135         1.166089
 H        -0.229397        -3.269572        -0.354872
