19
Iteration:  4208charge 0 multiplicity 1
 C        -3.077803        -1.766958         0.119028
 C        -1.955028        -0.906173         0.665121
 C        -1.741309         0.380541        -0.222613
 C        -0.980239        -0.419082        -1.193313
 C        -0.398294        -1.184526         0.020642
 C         0.093809        -2.538647        -0.036932
 C         0.233703         0.076057         0.712326
 O         1.383638         0.156581         1.127669
 O        -0.660573         1.073719         0.652824
 H        -3.506773        -2.414927         0.906157
 H        -3.896525        -1.175115        -0.253142
 H        -2.690809        -2.479147        -0.679222
 H        -2.124023        -0.803208         1.741681
 H        -2.564284         1.120789        -0.382823
 H        -1.732859        -0.798234        -1.882492
 H        -0.217548         0.143526        -1.636264
 H         1.205054        -2.495444        -0.011355
 H        -0.148842        -3.048550         0.981549
 H        -0.299934        -3.087351        -0.988077
