19
Iteration:   509
 C        -2.974570        -1.599094         1.349282
 C        -1.781960        -0.664723         0.838256
 C        -1.747083         0.466869        -0.169466
 C        -1.300672        -0.540031        -1.200349
 C        -0.736780        -1.241106         0.010627
 C        -0.088344        -2.553361         0.208766
 C         0.348411        -0.054623         0.226309
 O         1.496949         0.017422         0.506493
 O        -0.418744         1.063789         0.036035
 H        -2.643753        -2.621683         1.421957
 H        -3.191366        -1.309034         2.420817
 H        -3.948436        -1.646735         0.839595
 H        -1.466394        -0.267063         1.810486
 H        -2.538903         1.228969        -0.307448
 H        -2.142385        -1.088833        -1.648970
 H        -0.578347        -0.285737        -2.087505
 H         1.002993        -2.563718        -0.086602
 H        -0.142448        -2.924011         1.295723
 H        -0.532974        -3.251387        -0.500711
