19
Iteration:  3191
 C        -3.211284        -1.710363        -0.020803
 C        -2.048959        -0.823535         0.503677
 C        -1.612121         0.363098        -0.388558
 C        -0.646460        -0.471095        -1.254329
 C        -0.464408        -1.228827         0.143122
 C         0.048591        -2.602906         0.384391
 C         0.195008         0.040712         0.770708
 O         1.312801         0.187685         1.143959
 O        -0.683482         1.089218         0.568334
 H        -3.844700        -1.791647         0.872073
 H        -3.979051        -1.292279        -0.766540
 H        -2.902406        -2.688600        -0.466601
 H        -2.133154        -0.508087         1.573495
 H        -2.335356         1.172162        -0.751159
 H        -1.098981        -1.137620        -2.020960
 H         0.213862         0.162113        -1.671406
 H        -0.605240        -3.256289        -0.138337
 H         1.000762        -2.750025        -0.047507
 H         0.176619        -2.803809         1.414345
