19
Iteration:    93charge 0 multiplicity 1
 C        -2.890791        -1.443165         1.398813
 C        -1.560935        -0.643034         1.168094
 C        -1.770373         0.453711         0.133947
 C        -1.845359        -0.689387        -0.940372
 C        -0.584654        -1.195224        -0.032633
 C        -0.099842        -2.593234        -0.121527
 C         0.399604        -0.071528         0.008382
 O         1.581284         0.055887         0.156120
 O        -0.353544         1.016726         0.126586
 H        -3.366873        -1.866614         2.329273
 H        -3.763350        -0.786027         1.076392
 H        -2.966705        -2.330684         0.713685
 H        -0.989414        -0.385791         2.067657
 H        -2.355594         1.367457         0.307451
 H        -2.620241        -1.560783        -0.892173
 H        -1.795136        -0.304643        -2.046122
 H        -0.067629        -2.827537        -1.199741
 H         0.958872        -2.668496         0.231528
 H        -0.739330        -3.279796         0.507740
