19
Iteration:   736charge 0 multiplicity 1
 C        -3.293575        -1.475133         1.236844
 C        -1.887116        -0.756498         0.879186
 C        -1.788765         0.381554        -0.249833
 C        -1.242188        -0.555539        -1.204559
 C        -0.534957        -1.222301         0.044618
 C         0.145652        -2.568381         0.038389
 C         0.325191        -0.009736         0.402899
 O         1.530907        -0.024294         0.576041
 O        -0.424920         1.096381         0.132350
 H        -3.049533        -2.150608         2.046903
 H        -4.070504        -0.671348         1.481379
 H        -3.668789        -2.114470         0.400264
 H        -1.604219        -0.349604         1.880363
 H        -2.424861         1.285881        -0.486455
 H        -1.937850        -1.299794        -1.587816
 H        -0.492535        -0.204713        -1.970210
 H         1.183779        -2.710255         0.321935
 H        -0.518818        -3.016901         0.821344
 H        -0.102126        -3.114713        -1.002336
