19
Iteration:  3117charge 0 multiplicity 1
 C        -3.080820        -1.687074         0.155783
 C        -1.956039        -0.746513         0.500163
 C        -1.635875         0.439461        -0.354712
 C        -0.932152        -0.643087        -1.393421
 C        -0.481095        -1.171585         0.016968
 C         0.226784        -2.519432         0.305827
 C         0.195547         0.038924         0.724807
 O         0.976220        -0.026180         1.612871
 O        -0.437925         1.205145         0.225191
 H        -2.852984        -2.611558         0.629497
 H        -4.090730        -1.387008         0.529472
 H        -3.177822        -1.785901        -0.898186
 H        -1.908933        -0.457829         1.590897
 H        -2.324625         1.230973        -0.786802
 H        -1.570494        -1.258830        -1.983753
 H        -0.161172        -0.186947        -2.070515
 H        -0.602372        -3.342583         0.420323
 H         0.852341        -2.839891        -0.523499
 H         0.868572        -2.411211         1.271783
