19
Iteration:   456
 C        -3.000112        -1.447799         1.118364
 C        -1.691789        -0.680673         1.038122
 C        -1.801409         0.435411        -0.050313
 C        -1.536491        -0.723247        -1.112645
 C        -0.680845        -1.227983         0.128213
 C         0.000225        -2.612752         0.081004
 C         0.352076        -0.012477         0.238629
 O         1.546323         0.079090         0.416762
 O        -0.364329         1.084757         0.029242
 H        -3.026533        -2.137846         1.961107
 H        -3.766481        -0.688202         1.315412
 H        -3.374606        -1.999458         0.250546
 H        -1.435359        -0.491774         2.078943
 H        -2.528836         1.284799        -0.080111
 H        -2.270289        -1.487842        -1.180083
 H        -0.875812        -0.528199        -1.965838
 H         0.547394        -2.893421         1.041359
 H        -0.788293        -3.422902        -0.098687
 H         0.610966        -2.681714        -0.753609
