19
Iteration:  1966
 C        -3.207859        -1.531339        -0.077003
 C        -2.059670        -0.692680         0.453572
 C        -1.507940         0.324982        -0.567676
 C        -0.906209        -0.784894        -1.249787
 C        -0.474995        -1.155472         0.253395
 C         0.146298        -2.556146         0.525444
 C         0.249708         0.038901         0.788477
 O         1.166481         0.175055         1.576026
 O        -0.497560         1.096853         0.151295
 H        -3.176191        -1.758192        -1.172568
 H        -3.125749        -2.540948         0.397167
 H        -4.326741        -1.234989         0.140883
 H        -2.191553        -0.261063         1.446852
 H        -2.149397         1.076431        -0.920772
 H        -1.485159        -1.638719        -1.637467
 H        -0.139723        -0.618542        -1.980613
 H         0.260063        -3.072864        -0.440453
 H         1.070002        -2.555069         0.984754
 H        -0.621180        -3.119679         1.081510
