19
Iteration:  1645
 C        -3.244790        -1.526069         0.290836
 C        -2.025222        -0.637065         0.607328
 C        -1.632953         0.422673        -0.448663
 C        -0.898369        -0.733598        -1.286621
 C        -0.546758        -1.219790         0.155165
 C         0.201909        -2.687597         0.287106
 C         0.232816        -0.031571         0.738126
 O         1.242909         0.112139         1.372946
 O        -0.468813         1.182409         0.156361
 H        -3.804969        -1.314834        -0.651575
 H        -3.026979        -2.641731         0.119351
 H        -3.835523        -1.624444         1.194473
 H        -2.226898        -0.206714         1.613139
 H        -2.307147         1.175042        -0.814164
 H        -1.776003        -1.326963        -1.798190
 H        -0.032642        -0.690086        -1.943751
 H         0.349565        -2.929917        -0.713164
 H         1.276103        -2.502901         0.591020
 H        -0.351029        -3.348747         0.861244
