19
Iteration:  2623charge 0 multiplicity 1
 C        -3.306472        -1.509056         0.238265
 C        -1.976902        -0.731376         0.455766
 C        -1.473390         0.351215        -0.584756
 C        -0.674620        -0.772293        -1.330413
 C        -0.509726        -1.289533         0.099429
 C         0.205867        -2.542641         0.371128
 C         0.162496         0.020319         0.747562
 O         0.938851         0.195175         1.681820
 O        -0.467648         1.104486         0.098031
 H        -3.423052        -1.980054        -0.800813
 H        -3.260074        -2.349485         0.964308
 H        -4.252503        -0.868837         0.452657
 H        -2.000693        -0.399913         1.479492
 H        -2.228131         0.977168        -0.925384
 H        -1.237084        -1.374112        -2.087494
 H         0.198194        -0.369870        -1.835447
 H        -0.144854        -3.337529        -0.172166
 H         1.268446        -2.310719         0.134202
 H         0.093314        -2.759994         1.398547
