19
Iteration:   874
 C        -3.152304        -1.578975         0.873621
 C        -1.961721        -0.717826         0.880275
 C        -1.693540         0.472248        -0.106333
 C        -1.196131        -0.607003        -1.202819
 C        -0.643452        -1.242757         0.168781
 C         0.029267        -2.529064         0.148008
 C         0.339662        -0.052199         0.424684
 O         1.535691         0.072068         0.517608
 O        -0.445754         1.061902         0.208905
 H        -3.088410        -2.184544         1.776775
 H        -4.104756        -0.944108         0.888646
 H        -3.333004        -2.309240         0.078147
 H        -1.757850        -0.341588         1.908544
 H        -2.457171         1.303434        -0.233298
 H        -1.989049        -1.165532        -1.684143
 H        -0.400862        -0.319978        -1.932005
 H        -0.557813        -3.392390         0.520663
 H         0.260053        -2.875503        -0.863261
 H         1.027482        -2.509015         0.696809
