19
Iteration:  3122charge 0 multiplicity 1
 C        -3.072522        -1.698396         0.113442
 C        -1.941711        -0.743189         0.518134
 C        -1.647596         0.459190        -0.333127
 C        -0.929014        -0.593094        -1.392396
 C        -0.486679        -1.101413         0.061798
 C         0.180263        -2.587593         0.319249
 C         0.174971         0.020421         0.729980
 O         1.019432        -0.012553         1.614340
 O        -0.440969         1.192954         0.178829
 H        -2.862773        -2.561460         0.835777
 H        -4.087891        -1.448723         0.383656
 H        -3.102352        -1.949086        -0.991691
 H        -2.027379        -0.588079         1.579571
 H        -2.373644         1.136455        -0.693506
 H        -1.543118        -1.417579        -1.880193
 H        -0.154028        -0.201225        -2.014447
 H        -0.495857        -3.375696         0.391519
 H         0.859942        -2.790564        -0.556226
 H         0.880024        -2.416580         1.102520
