19
Iteration:  3989
 C        -3.052271        -1.766012         0.297643
 C        -1.921435        -0.838695         0.620994
 C        -1.764104         0.398205        -0.284058
 C        -1.044972        -0.396956        -1.261488
 C        -0.480128        -1.161091        -0.026721
 C         0.154992        -2.497725        -0.144012
 C         0.294004        -0.018186         0.753094
 O         1.332542         0.090702         1.342464
 O        -0.637581         1.065080         0.550980
 H        -3.556133        -2.390033         1.036897
 H        -3.845303        -1.247763        -0.173789
 H        -2.754990        -2.448865        -0.515815
 H        -1.995135        -0.449569         1.635211
 H        -2.503312         1.161509        -0.572006
 H        -1.643297        -1.028733        -2.018408
 H        -0.256525         0.105328        -1.874010
 H         1.180105        -2.451627        -0.520212
 H         0.169211        -2.760877         0.961142
 H        -0.459088        -3.277546        -0.659361
