19
Iteration:  2299charge 0 multiplicity 1
 C        -3.179963        -1.526246        -0.133337
 C        -2.001988        -0.816253         0.473569
 C        -1.674888         0.333097        -0.520694
 C        -0.754067        -0.693019        -1.281046
 C        -0.497102        -1.183771         0.191043
 C         0.068568        -2.468439         0.681991
 C         0.202935        -0.005081         0.761827
 O         1.204180         0.165112         1.465477
 O        -0.509998         1.026407         0.191468
 H        -3.048476        -1.674674        -1.237333
 H        -3.600665        -2.521600         0.342360
 H        -3.944586        -0.718239        -0.058145
 H        -2.145054        -0.627603         1.565638
 H        -2.174731         1.171040        -1.031821
 H        -1.092939        -1.444218        -1.961357
 H         0.114032        -0.277107        -1.780921
 H        -0.698957        -3.211163         0.765581
 H         0.931542        -2.804085         0.116701
 H         0.276946        -2.303392         1.736490
