19
Iteration:  3528
 C        -3.141577        -1.714019         0.272070
 C        -1.911272        -0.833584         0.544596
 C        -1.665166         0.451467        -0.388356
 C        -0.891409        -0.450493        -1.283627
 C        -0.492688        -1.180902        -0.024932
 C         0.238088        -2.445757         0.066667
 C         0.207263        -0.016679         0.737646
 O         1.182493         0.001664         1.447708
 O        -0.638396         1.061207         0.437031
 H        -3.324368        -2.537417         0.909181
 H        -4.015040        -1.033051         0.391055
 H        -3.093462        -2.115378        -0.700556
 H        -1.915245        -0.535096         1.559049
 H        -2.417268         1.211460        -0.640515
 H        -1.645656        -0.989251        -1.697443
 H        -0.229511         0.014277        -2.008655
 H         0.835745        -2.636804        -0.823473
 H         1.022255        -2.444977         0.819354
 H        -0.359844        -3.325450         0.003852
