19
Iteration:  1257
 C        -3.071706        -1.621769         0.574041
 C        -1.876530        -0.696822         0.842395
 C        -1.680088         0.449887        -0.237633
 C        -1.145939        -0.573101        -1.220603
 C        -0.636804        -1.215089         0.171890
 C        -0.032309        -2.573420         0.169569
 C         0.276482        -0.053244         0.507398
 O         1.382408         0.092671         0.968505
 O        -0.406299         1.114806         0.141797
 H        -3.384717        -1.517931        -0.410726
 H        -2.615507        -2.597311         0.620845
 H        -3.985805        -1.544238         1.104861
 H        -1.714814        -0.616321         1.884750
 H        -2.325931         1.229237        -0.594241
 H        -1.904774        -1.363227        -1.520825
 H        -0.373364        -0.461261        -1.962853
 H        -0.583373        -3.200554        -0.599781
 H         0.956744        -2.519457        -0.163888
 H         0.010442        -2.980770         1.224825
