19
Iteration:   903charge 0 multiplicity 1
 C        -3.132342        -1.405170         0.773286
 C        -1.864937        -0.741387         0.958275
 C        -1.755464         0.390757        -0.025476
 C        -1.387546        -0.609634        -1.224305
 C        -0.525973        -1.237347         0.030050
 C         0.156521        -2.630994         0.156842
 C         0.382966         0.001520         0.295284
 O         1.534562         0.016169         0.669862
 O        -0.523331         1.114150         0.216124
 H        -3.469208        -1.977398         1.673271
 H        -3.882650        -0.795276         0.344229
 H        -3.172673        -2.278369         0.115052
 H        -1.736175        -0.403858         1.999556
 H        -2.496696         1.170378        -0.001818
 H        -2.236086        -1.283431        -1.565220
 H        -0.788959        -0.287758        -2.093734
 H        -0.087996        -2.917102         1.198919
 H        -0.278178        -3.447557        -0.559654
 H         1.191949        -2.738043         0.163370
