19
Iteration:   198charge 0 multiplicity 1
 C        -2.838398        -1.549124         1.251740
 C        -1.596141        -0.736771         1.178438
 C        -1.815516         0.533985         0.135553
 C        -1.671585        -0.531937        -1.007730
 C        -0.698777        -1.215119         0.055335
 C        -0.170816        -2.630208         0.044645
 C         0.401388        -0.078643         0.086710
 O         1.630067         0.006122         0.214202
 O        -0.437237         1.102390        -0.038432
 H        -2.540565        -2.610530         1.122733
 H        -3.266585        -1.386709         2.208625
 H        -3.561269        -1.237455         0.490995
 H        -1.102185        -0.637709         2.158061
 H        -2.576829         1.365595         0.315285
 H        -2.486481        -1.214325        -1.205227
 H        -1.189311        -0.216083        -1.886688
 H        -0.177884        -3.070215         1.026643
 H        -0.738593        -3.243703        -0.651034
 H         0.935208        -2.652324        -0.335182
