19
Iteration:    13charge 0 multiplicity 1
 C        -2.769041        -1.595836         1.613331
 C        -1.666927        -0.608180         1.098625
 C        -1.805787         0.589542         0.037054
 C        -1.736502        -0.591194        -1.126354
 C        -0.683780        -1.199779        -0.016105
 C        -0.074065        -2.660167        -0.066414
 C         0.326903        -0.074447         0.106505
 O         1.572471        -0.048247        -0.022842
 O        -0.361174         1.091507         0.248556
 H        -3.156526        -1.056957         2.512091
 H        -3.579246        -1.713534         0.926367
 H        -2.400412        -2.586825         1.980194
 H        -1.068613        -0.312585         1.934229
 H        -2.426768         1.492916         0.065474
 H        -2.729755        -1.074786        -1.099524
 H        -1.340283        -0.357605        -2.117117
 H         0.801677        -2.908500         0.427141
 H        -0.903761        -3.328362         0.192125
 H         0.036669        -2.828825        -1.201188
