19
Iteration:  1994charge 0 multiplicity 1
 C        -3.219781        -1.453766        -0.068987
 C        -2.015476        -0.851628         0.516425
 C        -1.509986         0.260718        -0.453062
 C        -0.652244        -0.713436        -1.257314
 C        -0.553550        -1.276616         0.244510
 C         0.013760        -2.646838         0.533155
 C         0.199465         0.045055         0.735721
 O         1.130638         0.333782         1.425624
 O        -0.509724         1.113831         0.195450
 H        -3.099338        -1.820231        -1.058893
 H        -3.492161        -2.303853         0.578573
 H        -4.029423        -0.800544        -0.135902
 H        -2.158738        -0.546321         1.582370
 H        -2.304774         0.959290        -0.902343
 H        -1.017071        -1.301544        -2.070185
 H         0.349812        -0.197240        -1.522654
 H        -0.140972        -3.287577        -0.376561
 H         1.148521        -2.700124         0.769278
 H        -0.651794        -3.179659         1.244223
