19
Iteration:  2927charge 0 multiplicity 1
 C        -3.185078        -1.627720        -0.099734
 C        -2.072575        -0.780594         0.497251
 C        -1.578234         0.280330        -0.441454
 C        -0.737535        -0.633201        -1.252678
 C        -0.520517        -1.186604         0.285012
 C         0.060717        -2.560572         0.488704
 C         0.228718         0.094129         0.774722
 O         1.270956         0.236093         1.382343
 O        -0.592080         1.077443         0.263062
 H        -4.153004        -1.155459         0.099325
 H        -3.148674        -1.741778        -1.133973
 H        -3.247287        -2.646700         0.321408
 H        -2.359383        -0.526784         1.568417
 H        -2.281055         0.913320        -0.906057
 H        -1.119230        -1.565859        -1.784424
 H         0.122476        -0.292852        -1.833866
 H        -0.581491        -3.318171         0.091875
 H         0.947679        -2.476164        -0.210268
 H         0.298693        -2.887795         1.492841
