19
Iteration:  4576charge 0 multiplicity 1
 C        -2.910786        -1.798206         0.153581
 C        -1.929333        -0.811048         0.592046
 C        -1.769517         0.447380        -0.238611
 C        -1.004525        -0.365802        -1.308837
 C        -0.497546        -1.118872        -0.020759
 C         0.176344        -2.572505         0.023693
 C         0.160998         0.060589         0.696125
 O         1.215478        -0.001148         1.376932
 O        -0.565052         1.106219         0.528173
 H        -2.823458        -2.763663         0.592014
 H        -3.748784        -1.440643         0.677359
 H        -3.100526        -1.933608        -0.904996
 H        -1.973727        -0.643449         1.620590
 H        -2.609494         1.162474        -0.191562
 H        -1.792098        -0.939591        -1.875305
 H        -0.335322        -0.034706        -2.154645
 H        -0.027763        -3.223648        -0.880531
 H         1.308849        -2.460071         0.091869
 H        -0.326502        -3.160052         0.833437
