19
Iteration:  1559
 C        -3.135481        -1.712252         0.295581
 C        -2.097839        -0.675692         0.546948
 C        -1.705264         0.425615        -0.462570
 C        -0.852061        -0.537672        -1.269216
 C        -0.647195        -1.164747         0.188072
 C         0.026951        -2.459933         0.416636
 C         0.245205        -0.017787         0.695099
 O         1.414015        -0.015780         1.062815
 O        -0.479605         1.069598         0.355054
 H        -2.479057        -2.466658        -0.043771
 H        -3.572203        -2.090605         1.283780
 H        -3.966203        -1.574013        -0.383943
 H        -2.166363        -0.110258         1.525253
 H        -2.333222         1.290443        -0.698386
 H        -1.554250        -1.108754        -1.999765
 H         0.060341        -0.200226        -1.712319
 H         1.048312        -2.282517         0.857483
 H        -0.515405        -3.243010         1.113470
 H         0.204435        -3.028386        -0.516147
