19
Iteration:  3790charge 0 multiplicity 1
 C        -3.050552        -1.724150         0.364259
 C        -1.888009        -0.820825         0.581413
 C        -1.660623         0.446686        -0.316270
 C        -0.979451        -0.414649        -1.330275
 C        -0.490354        -1.182639        -0.048090
 C         0.251182        -2.456997        -0.173793
 C         0.203529        -0.016599         0.681844
 O         1.092480        -0.035708         1.520154
 O        -0.578966         1.113725         0.467469
 H        -3.125286        -2.402587        -0.482695
 H        -2.880952        -2.407756         1.260322
 H        -4.086979        -1.450826         0.485377
 H        -1.969810        -0.587855         1.647828
 H        -2.444266         1.138544        -0.667902
 H        -1.853805        -0.928214        -1.775088
 H        -0.063134         0.002338        -1.848082
 H         0.980462        -2.399569        -0.902612
 H         0.747722        -2.647318         0.756582
 H        -0.467137        -3.196665        -0.329111
