19
Iteration:  2422
 C        -3.099759        -1.595883         0.048924
 C        -1.979619        -0.692619         0.484134
 C        -1.570313         0.397697        -0.558681
 C        -0.744296        -0.745767        -1.306926
 C        -0.406030        -1.162441         0.139783
 C        -0.005525        -2.565979         0.500725
 C         0.218572         0.036409         0.750487
 O         1.047345         0.179762         1.633003
 O        -0.510384         1.065979         0.107665
 H        -2.893226        -1.974527        -0.973774
 H        -3.356549        -2.376981         0.861396
 H        -4.073678        -1.028624         0.025837
 H        -2.101400        -0.463343         1.578397
 H        -2.343488         1.045931        -0.914596
 H        -1.208538        -1.586842        -1.881077
 H        -0.005442        -0.407210        -1.996193
 H        -0.304140        -3.208406        -0.363017
 H         0.973816        -2.702876         0.783986
 H        -0.548116        -2.939825         1.376501
