19
Iteration:  1638charge 0 multiplicity 1
 C        -3.213873        -1.540657         0.243373
 C        -2.007539        -0.690447         0.660554
 C        -1.576261         0.433720        -0.451144
 C        -0.942042        -0.713813        -1.245516
 C        -0.567962        -1.264705         0.174167
 C         0.141276        -2.686641         0.296178
 C         0.240680         0.011940         0.673694
 O         1.218679         0.170337         1.338894
 O        -0.454344         1.132505         0.179089
 H        -3.723740        -1.340588        -0.655821
 H        -2.818940        -2.549168         0.275750
 H        -3.959129        -1.449725         1.052963
 H        -2.099457        -0.318555         1.698050
 H        -2.207813         1.300850        -0.865040
 H        -1.522099        -1.343035        -1.874628
 H        -0.144903        -0.258757        -1.896617
 H         0.365129        -3.022065        -0.791150
 H         1.096307        -2.559407         0.815264
 H        -0.418740        -3.554617         0.783692
