19
Iteration:  3333
 C        -3.046936        -1.671713         0.334989
 C        -1.926042        -0.756974         0.544970
 C        -1.652478         0.403116        -0.428318
 C        -0.892543        -0.500145        -1.311033
 C        -0.473853        -1.182366        -0.008419
 C         0.147335        -2.571811         0.051074
 C         0.208935        -0.013542         0.764408
 O         1.074088         0.074573         1.615564
 O        -0.552594         1.102615         0.238847
 H        -4.006891        -1.264067         0.577486
 H        -3.126768        -2.084790        -0.722743
 H        -2.885120        -2.506442         1.022839
 H        -2.050098        -0.324032         1.532494
 H        -2.350206         1.192672        -0.756016
 H        -1.484525        -1.030323        -1.950460
 H        -0.082706        -0.110147        -1.962409
 H         0.998626        -2.623665        -0.610698
 H         0.471756        -2.853281         1.041207
 H        -0.520062        -3.369259        -0.159725
