19
Iteration:  4217charge 0 multiplicity 1
 C        -3.062720        -1.779305         0.155311
 C        -1.937144        -0.886334         0.648821
 C        -1.826355         0.335755        -0.183734
 C        -0.953625        -0.417669        -1.196550
 C        -0.421283        -1.093350         0.055264
 C         0.113330        -2.528527        -0.099417
 C         0.261364         0.060367         0.727832
 O         1.340282         0.169743         1.200990
 O        -0.606078         1.040995         0.582891
 H        -3.548601        -2.447137         0.915223
 H        -3.851606        -1.049951        -0.227228
 H        -2.893691        -2.452781        -0.779234
 H        -1.927385        -0.566907         1.721507
 H        -2.593786         1.126178        -0.424615
 H        -1.607946        -1.087395        -1.831294
 H        -0.236468         0.076559        -1.820811
 H         1.187807        -2.662480        -0.234517
 H        -0.220565        -3.137641         0.812618
 H        -0.445983        -3.118117        -0.904984
