19
Iteration:  2634charge 0 multiplicity 1
 C        -3.183905        -1.481067         0.193055
 C        -2.012478        -0.658650         0.485916
 C        -1.636748         0.272087        -0.616516
 C        -0.727608        -0.717919        -1.280487
 C        -0.471388        -1.235204         0.118470
 C         0.192818        -2.590499         0.342594
 C         0.164969         0.012596         0.794382
 O         0.938657         0.241894         1.649886
 O        -0.409977         1.012486         0.122286
 H        -3.346953        -1.752786        -0.917972
 H        -3.153197        -2.445177         0.762569
 H        -4.144449        -0.958160         0.610648
 H        -2.172129        -0.081698         1.364143
 H        -2.156951         0.932008        -1.231356
 H        -1.139153        -1.557625        -1.909217
 H         0.170886        -0.279400        -1.688255
 H        -0.154050        -3.314824        -0.291328
 H         1.307719        -2.573957         0.206993
 H         0.100063        -2.913206         1.341745
