19
Iteration:   404
 C        -2.993519        -1.443042         1.208701
 C        -1.715707        -0.668422         0.974831
 C        -1.653011         0.384371        -0.122816
 C        -1.502697        -0.672931        -1.160971
 C        -0.706721        -1.237049         0.071983
 C         0.028496        -2.538336         0.135593
 C         0.308836        -0.003342         0.279840
 O         1.532305        -0.043291         0.247518
 O        -0.465975         1.128431         0.223802
 H        -3.382399        -1.326340         2.275643
 H        -3.799263        -1.251395         0.545035
 H        -2.748828        -2.529605         1.083818
 H        -1.281172        -0.439589         1.972828
 H        -2.482754         1.152761        -0.271270
 H        -2.460248        -1.265533        -1.288229
 H        -0.996050        -0.537322        -2.114949
 H        -0.562618        -3.226808         0.861210
 H         0.151773        -3.007206        -0.852967
 H         1.011862        -2.447792         0.602088
