19
Iteration:    25charge 0 multiplicity 1
 C        -2.751012        -1.573151         1.672257
 C        -1.727229        -0.617414         1.058094
 C        -1.748809         0.538271        -0.037194
 C        -1.679738        -0.534829        -1.092494
 C        -0.701163        -1.207456        -0.034060
 C        -0.150695        -2.633782        -0.091745
 C         0.383513        -0.059815         0.072103
 O         1.556029        -0.071510        -0.001535
 O        -0.389029         1.100469         0.302168
 H        -2.977197        -1.412216         2.770550
 H        -3.677432        -1.716401         1.147339
 H        -2.165927        -2.542445         1.574371
 H        -1.265178        -0.151886         1.892077
 H        -2.480938         1.362634        -0.083434
 H        -2.608221        -1.178756        -1.180503
 H        -1.417919        -0.420749        -2.170872
 H         0.801962        -2.536627         0.226954
 H        -0.594784        -3.374498         0.609172
 H        -0.084154        -3.095398        -1.167278
