19
Iteration:  2144charge 0 multiplicity 1
 C        -3.309411        -1.487431         0.210656
 C        -2.041860        -0.682295         0.356167
 C        -1.479360         0.317858        -0.680734
 C        -0.431676        -0.738497        -1.220741
 C        -0.567075        -1.282211         0.173785
 C         0.150215        -2.580999         0.404299
 C         0.076556         0.009086         0.800798
 O         0.991581         0.146874         1.538494
 O        -0.535611         1.127781         0.227830
 H        -3.297389        -2.038065        -0.776059
 H        -3.274985        -2.192142         1.122503
 H        -4.259704        -0.837362         0.253962
 H        -2.287096        -0.114641         1.266702
 H        -2.237388         0.946781        -1.330337
 H        -0.891632        -1.424378        -1.904723
 H         0.558153        -0.425892        -1.570607
 H        -0.378510        -3.431245         0.116704
 H         1.058505        -2.564837        -0.261718
 H         0.621275        -2.638716         1.343174
