19
Iteration:   507
 C        -2.968291        -1.586485         1.353338
 C        -1.778479        -0.661993         0.821691
 C        -1.779924         0.470109        -0.169911
 C        -1.313919        -0.544250        -1.215637
 C        -0.721570        -1.252158         0.023574
 C        -0.091159        -2.554356         0.213934
 C         0.357674        -0.055611         0.234726
 O         1.508117         0.018855         0.502101
 O        -0.413108         1.062088         0.043446
 H        -2.635150        -2.606545         1.415224
 H        -3.228082        -1.294387         2.439033
 H        -3.937734        -1.663368         0.840282
 H        -1.515893        -0.288675         1.822967
 H        -2.530841         1.222685        -0.304728
 H        -2.131609        -1.158509        -1.655343
 H        -0.568776        -0.193255        -2.071063
 H         0.955241        -2.489231        -0.011800
 H        -0.162320        -2.978742         1.233570
 H        -0.518792        -3.290750        -0.578373
