19
Iteration:  3916
 C        -3.021255        -1.818864        -0.073470
 C        -1.963916        -0.870952         0.604207
 C        -1.733657         0.520700        -0.101126
 C        -0.953597        -0.322235        -1.145114
 C        -0.538952        -1.167508         0.069534
 C         0.189286        -2.514475         0.219461
 C         0.229315        -0.019720         0.671659
 O         1.360053         0.044388         0.914850
 O        -0.666069         1.075275         0.734534
 H        -2.946790        -2.932034        -0.042050
 H        -4.029121        -1.635931         0.367338
 H        -3.290566        -1.669917        -1.159656
 H        -2.091405        -0.969629         1.689201
 H        -2.496690         1.302190        -0.340340
 H        -1.636515        -0.892103        -1.746887
 H        -0.312115         0.103475        -1.907794
 H         1.171692        -2.551240        -0.229392
 H         0.223219        -2.729307         1.272890
 H        -0.492539        -3.281887        -0.181673
