19
Iteration:  1096
 C        -3.237632        -1.572704         0.806033
 C        -1.921970        -0.797866         0.833410
 C        -1.717784         0.388821        -0.271414
 C        -1.023486        -0.512150        -1.342406
 C        -0.583422        -1.209136         0.036320
 C        -0.014513        -2.550899         0.236911
 C         0.327878        -0.001214         0.426237
 O         1.505299         0.053010         0.699104
 O        -0.503889         1.076325         0.390910
 H        -3.086403        -2.701648         0.711732
 H        -3.681553        -1.571125         1.800242
 H        -3.904902        -1.186319        -0.030461
 H        -1.488926        -0.498329         1.815328
 H        -2.348111         1.230459        -0.409483
 H        -1.740367        -1.174032        -1.925553
 H        -0.371399        -0.033883        -2.037595
 H        -0.775214        -3.082997         0.813445
 H         0.165316        -3.122620        -0.642324
 H         0.956927        -2.529507         0.786366
