19
Iteration:  2527charge 0 multiplicity 1
 C        -3.070182        -1.733611        -0.106581
 C        -2.042743        -0.713847         0.479920
 C        -1.581578         0.349981        -0.565375
 C        -0.724940        -0.667824        -1.249571
 C        -0.555632        -1.155677         0.308526
 C        -0.212296        -2.605423         0.587138
 C         0.317768         0.072341         0.773922
 O         1.310536         0.303845         1.394762
 O        -0.561373         1.048949         0.272824
 H        -2.793883        -2.029853        -1.105440
 H        -3.288977        -2.622711         0.446154
 H        -3.949251        -1.186792        -0.272047
 H        -2.244068        -0.303135         1.456775
 H        -2.163906         0.913648        -1.259262
 H        -1.111109        -1.499137        -1.950905
 H         0.157453        -0.188763        -1.617990
 H        -1.083068        -3.272653         0.317725
 H         0.665569        -2.883739        -0.050843
 H        -0.050006        -2.773672         1.673167
