19
Iteration:  3535charge 0 multiplicity 1
 C        -3.141213        -1.698672         0.292033
 C        -1.903454        -0.818423         0.562321
 C        -1.725555         0.441969        -0.404548
 C        -0.907169        -0.492329        -1.322947
 C        -0.465857        -1.125157        -0.027463
 C         0.259069        -2.501078        -0.016698
 C         0.215265        -0.003516         0.741375
 O         1.189984         0.028504         1.498264
 O        -0.633819         1.053773         0.475402
 H        -3.287987        -2.418997         1.157332
 H        -3.924167        -0.929807         0.233051
 H        -3.221263        -2.249937        -0.705484
 H        -2.024947        -0.531381         1.645123
 H        -2.360907         1.230388        -0.820127
 H        -1.649547        -1.111390        -1.951628
 H        -0.038084        -0.110776        -1.948240
 H         0.867749        -2.691710        -0.911804
 H         0.934663        -2.490522         0.809497
 H        -0.484651        -3.309308         0.084073
