19
Iteration:  3799charge 0 multiplicity 1
 C        -3.091867        -1.806016         0.429527
 C        -1.879199        -0.831270         0.565260
 C        -1.681571         0.470123        -0.317488
 C        -0.948467        -0.388567        -1.287115
 C        -0.532075        -1.173018        -0.010800
 C         0.244161        -2.501722        -0.215708
 C         0.245698         0.005224         0.733192
 O         1.106830         0.002766         1.565164
 O        -0.581335         1.108488         0.381115
 H        -3.001620        -2.377837        -0.470967
 H        -3.358268        -2.462789         1.254942
 H        -3.955020        -1.140687         0.277768
 H        -1.720321        -0.569962         1.645560
 H        -2.420937         1.259027        -0.574776
 H        -1.531619        -0.959800        -1.964906
 H        -0.298367         0.151905        -2.024389
 H         0.958128        -2.374543        -1.064673
 H         0.725316        -2.943478         0.654474
 H        -0.404565        -3.321141        -0.573932
