19
Iteration:  4815
 C        -3.073212        -1.852421         0.177976
 C        -1.991568        -0.787532         0.606585
 C        -1.725860         0.455508        -0.195646
 C        -1.068157        -0.343124        -1.401567
 C        -0.470321        -1.150584        -0.013125
 C         0.284395        -2.493256        -0.004007
 C         0.249944         0.019096         0.673870
 O         1.226562        -0.021043         1.403558
 O        -0.581463         1.073064         0.539042
 H        -3.081551        -2.851637         0.730542
 H        -3.974263        -1.161842         0.301271
 H        -2.834476        -2.057802        -0.953368
 H        -1.940674        -0.681992         1.794491
 H        -2.391219         1.332173        -0.290452
 H        -1.816676        -0.941628        -1.923456
 H        -0.385490         0.173293        -2.098258
 H        -0.046951        -3.340608        -0.570235
 H         1.365095        -2.346958        -0.144697
 H         0.005197        -2.791147         1.000594
