19
Iteration:  1006
 C        -3.006710        -1.620449         0.859984
 C        -1.835003        -0.631676         0.829035
 C        -1.766701         0.408707        -0.200253
 C        -1.283360        -0.516683        -1.266755
 C        -0.552319        -1.228831        -0.062293
 C        -0.034432        -2.666641         0.111604
 C         0.396029        -0.015813         0.349642
 O         1.479405         0.105591         0.894381
 O        -0.474215         1.032538         0.266017
 H        -3.315295        -1.842097         1.857678
 H        -3.898764        -0.990160         0.580693
 H        -3.091181        -2.472939         0.215348
 H        -1.768787        -0.283451         1.870070
 H        -2.518821         1.231910        -0.361648
 H        -2.177137        -0.999863        -1.645879
 H        -0.703590        -0.126187        -2.120088
 H         0.484271        -3.152221        -0.719230
 H         0.542329        -2.686009         0.965172
 H        -0.941430        -3.295077         0.363161
