19
Iteration:  2600charge 0 multiplicity 1
 C        -3.268607        -1.568920         0.245288
 C        -1.975061        -0.795230         0.419590
 C        -1.530709         0.407130        -0.723007
 C        -0.749218        -0.679190        -1.371155
 C        -0.389351        -1.194998         0.058814
 C         0.244667        -2.515651         0.545920
 C         0.154177         0.042523         0.741444
 O         0.946728         0.015154         1.617746
 O        -0.487700         1.135345         0.219747
 H        -3.376026        -2.369691        -0.590145
 H        -3.572954        -2.028883         1.212690
 H        -4.074421        -0.749828        -0.007282
 H        -2.111594        -0.214255         1.313264
 H        -2.173012         1.077257        -1.233825
 H        -1.379020        -1.378677        -1.896092
 H         0.039330        -0.348085        -2.112539
 H        -0.352268        -3.303933         0.235729
 H         1.280905        -2.582331         0.109834
 H         0.227042        -2.521397         1.615611
