19
Iteration:  3926charge 0 multiplicity 1
 C        -3.051277        -1.780078        -0.063776
 C        -1.992541        -0.869897         0.611165
 C        -1.736536         0.458298        -0.085052
 C        -0.964577        -0.405353        -1.288144
 C        -0.525767        -1.191580         0.157854
 C         0.137021        -2.526666         0.176363
 C         0.254180         0.000145         0.653636
 O         1.468520         0.109165         0.938286
 O        -0.741310         1.070448         0.773362
 H        -2.932615        -2.855390         0.229251
 H        -4.018666        -1.397888         0.282605
 H        -2.905420        -1.576815        -1.155852
 H        -2.142462        -0.743600         1.685235
 H        -2.605091         1.148305        -0.162653
 H        -1.519534        -0.828512        -2.132088
 H        -0.081490         0.199731        -1.539020
 H         1.023959        -2.657830        -0.314253
 H         0.296291        -2.836593         1.180494
 H        -0.509840        -3.204736        -0.350146
