19
Iteration:  3631
 C        -3.044704        -1.774982         0.162764
 C        -1.953550        -0.812465         0.529930
 C        -1.674481         0.442137        -0.227958
 C        -0.973060        -0.368146        -1.362337
 C        -0.547217        -1.160780        -0.015225
 C         0.161054        -2.446437         0.204578
 C         0.216530         0.015606         0.658990
 O         1.231614        -0.034672         1.264399
 O        -0.572708         1.105227         0.539888
 H        -3.903636        -1.588201         0.826297
 H        -3.113398        -1.841264        -0.848099
 H        -2.676841        -2.790607         0.364261
 H        -1.901512        -0.843332         1.656393
 H        -2.514007         1.115721        -0.272861
 H        -1.770080        -0.928503        -1.932896
 H        -0.228477        -0.230178        -2.060561
 H         1.247347        -2.135591         0.166359
 H        -0.121908        -2.873043         1.233924
 H        -0.091596        -3.410327        -0.361801
