19
Iteration:  3819
 C        -3.162000        -1.745552         0.362297
 C        -1.975190        -0.820014         0.730635
 C        -1.722341         0.338522        -0.223954
 C        -0.920947        -0.403265        -1.325724
 C        -0.320861        -1.134311        -0.081999
 C         0.193648        -2.508355        -0.311004
 C         0.248155        -0.014768         0.773698
 O         1.109488         0.131073         1.566645
 O        -0.513848         1.072988         0.354362
 H        -2.962952        -2.622671        -0.251402
 H        -3.461581        -2.194375         1.300359
 H        -4.157544        -1.455924        -0.041264
 H        -2.084909        -0.588562         1.826332
 H        -2.510179         1.090482        -0.452543
 H        -1.447380        -1.012309        -2.023289
 H        -0.150629         0.156408        -1.927529
 H         1.184690        -2.607129        -1.039400
 H         0.324914        -3.106396         0.656101
 H        -0.661914        -3.127270        -0.809832
