19
Iteration:  2305charge 0 multiplicity 1
 C        -3.153982        -1.528769        -0.144234
 C        -2.026705        -0.820812         0.487545
 C        -1.632489         0.378370        -0.486659
 C        -0.769286        -0.716678        -1.300900
 C        -0.520617        -1.177961         0.138128
 C         0.087264        -2.494038         0.709706
 C         0.200970         0.035117         0.771354
 O         1.166254         0.161917         1.483177
 O        -0.473623         1.015130         0.167225
 H        -3.038331        -1.666279        -1.195306
 H        -3.539074        -2.357908         0.319224
 H        -4.025553        -0.861958        -0.098110
 H        -2.117520        -0.682484         1.569907
 H        -2.435221         1.115067        -0.818852
 H        -1.316185        -1.413048        -1.990165
 H         0.089076        -0.301761        -1.912069
 H        -0.741363        -3.236970         0.727048
 H         1.030258        -2.928797         0.215330
 H         0.477519        -2.263588         1.725130
