19
Iteration:   644charge 0 multiplicity 1
 C        -3.025714        -1.619967         1.035100
 C        -1.870405        -0.685050         0.910038
 C        -1.794869         0.558714        -0.124384
 C        -1.322420        -0.495925        -1.171746
 C        -0.597204        -1.184248         0.080670
 C        -0.008679        -2.609754         0.238441
 C         0.356657        -0.085849         0.308603
 O         1.583521        -0.065591         0.419489
 O        -0.479007         1.105268         0.172612
 H        -2.907653        -2.119479         2.030755
 H        -3.987955        -1.168402         0.895201
 H        -2.921686        -2.423306         0.292810
 H        -1.693742        -0.089084         1.807086
 H        -2.619689         1.234676        -0.231715
 H        -2.255853        -1.094518        -1.347664
 H        -0.741732        -0.269077        -2.033076
 H        -0.632846        -3.243255         0.953897
 H        -0.121733        -3.122575        -0.729109
 H         1.064433        -2.537458         0.573799
