19
Iteration:  2101
 C        -3.194495        -1.615788        -0.022293
 C        -1.934703        -0.780113         0.394680
 C        -1.513120         0.342498        -0.534005
 C        -0.708064        -0.744919        -1.320882
 C        -0.431204        -1.200967         0.088009
 C        -0.077998        -2.597360         0.535468
 C         0.204135         0.145764         0.764886
 O         1.047330         0.209620         1.620025
 O        -0.479012         1.109176         0.241249
 H        -3.166666        -2.033919        -1.054011
 H        -3.235514        -2.430524         0.780326
 H        -4.063698        -0.921801         0.156247
 H        -1.978410        -0.563762         1.485169
 H        -2.059144         1.164280        -1.134876
 H        -1.347936        -1.296310        -1.934716
 H         0.158064        -0.340173        -1.859270
 H        -0.908865        -3.204424         0.718427
 H         0.542722        -3.213929        -0.160656
 H         0.516948        -2.504382         1.404568
