19
Iteration:   557charge 0 multiplicity 1
 C        -2.971825        -1.448003         1.021625
 C        -1.729905        -0.630105         1.015345
 C        -1.710571         0.456698        -0.110805
 C        -1.500688        -0.744064        -1.095832
 C        -0.564344        -1.213445         0.103214
 C        -0.049580        -2.541583         0.099541
 C         0.358603        -0.047510         0.241888
 O         1.516721         0.034982         0.596038
 O        -0.461342         1.041701         0.005486
 H        -2.791733        -2.556721         1.126281
 H        -3.494061        -1.230437         1.922662
 H        -3.736938        -1.304109         0.250071
 H        -1.630567        -0.412813         2.085792
 H        -2.502291         1.194398        -0.183861
 H        -2.384483        -1.365227        -1.321679
 H        -1.108480        -0.538193        -2.030587
 H         0.022555        -3.042954        -0.917916
 H         0.991504        -2.362566         0.387528
 H        -0.527988        -3.253923         0.764920
