19
Iteration:  4768
 C        -3.128654        -1.807519         0.425951
 C        -1.911121        -0.930855         0.681159
 C        -1.762764         0.490594        -0.379115
 C        -0.898791        -0.361222        -1.400442
 C        -0.429743        -1.158242        -0.104504
 C         0.210872        -2.500112        -0.178310
 C         0.268318         0.011199         0.731908
 O         1.094591         0.004597         1.597156
 O        -0.576454         1.120421         0.450709
 H        -2.957871        -2.737286         0.985205
 H        -4.132306        -1.313679         0.707147
 H        -2.972361        -2.149374        -0.608217
 H        -1.838584        -0.485854         1.738380
 H        -2.480772         1.294458        -0.643150
 H        -1.408193        -0.885420        -2.227186
 H        -0.089633         0.216245        -1.836883
 H        -0.378920        -3.096980        -0.956698
 H         1.070016        -2.245419        -0.821049
 H         0.400149        -3.186138         0.641600
