19
Iteration:   244
 C        -2.927932        -1.412214         1.426769
 C        -1.669582        -0.633305         0.992116
 C        -1.759235         0.497768        -0.042806
 C        -1.588061        -0.730712        -1.070964
 C        -0.677033        -1.274224         0.045406
 C        -0.068831        -2.627354        -0.110625
 C         0.377023         0.001457         0.156401
 O         1.574771         0.000686         0.259048
 O        -0.442830         1.049259         0.217118
 H        -2.940356        -2.431863         0.984118
 H        -2.888486        -1.441553         2.522556
 H        -3.868108        -0.903767         1.144495
 H        -1.223626        -0.194439         1.884879
 H        -2.469488         1.333826        -0.044103
 H        -2.537622        -1.315771        -1.060194
 H        -1.166280        -0.569512        -2.085690
 H         0.916894        -2.463770         0.245194
 H        -0.585422        -3.488942         0.346077
 H         0.116601        -2.846351        -1.309921
