19
Iteration:   703charge 0 multiplicity 1
 C        -3.013500        -1.422115         0.978306
 C        -1.748171        -0.644730         0.930774
 C        -1.779729         0.430319        -0.138755
 C        -1.430786        -0.626206        -1.228633
 C        -0.578130        -1.263462         0.045245
 C         0.006390        -2.668382         0.159507
 C         0.338386        -0.049390         0.333263
 O         1.522009         0.076067         0.543898
 O        -0.456026         1.060206         0.241242
 H        -3.165650        -1.909508         1.935189
 H        -4.042303        -0.972745         0.818861
 H        -2.855019        -2.279777         0.302792
 H        -1.487031        -0.210322         1.919512
 H        -2.529222         1.268840        -0.255753
 H        -2.295568        -1.159092        -1.603705
 H        -0.755917        -0.298095        -2.080728
 H         0.653831        -2.839787         0.995879
 H        -0.868938        -3.343704         0.268224
 H         0.458644        -3.169188        -0.804801
