19
Iteration:  4151
 C        -3.041838        -1.861894        -0.023801
 C        -1.969473        -0.909162         0.630621
 C        -1.824981         0.508991        -0.070316
 C        -0.922314        -0.332558        -1.231343
 C        -0.545149        -1.130050         0.068755
 C         0.155311        -2.438751         0.216523
 C         0.265836        -0.000275         0.649794
 O         1.453676        -0.004696         0.934788
 O        -0.714986         1.081285         0.703740
 H        -3.212371        -2.844562         0.493576
 H        -3.998927        -1.250630        -0.007291
 H        -2.797764        -1.952639        -1.122550
 H        -2.207625        -0.889538         1.737054
 H        -2.704440         1.188466        -0.056301
 H        -1.581099        -0.832715        -1.963198
 H        -0.143021        -0.051702        -1.886771
 H         1.216526        -2.220549        -0.033308
 H        -0.000535        -2.806154         1.308669
 H        -0.110780        -3.262439        -0.517317
