19
Iteration:  4492charge 0 multiplicity 1
 C        -3.075395        -1.733108         0.241800
 C        -1.928852        -0.823965         0.611520
 C        -1.704408         0.409731        -0.293838
 C        -0.912118        -0.443275        -1.332897
 C        -0.418180        -1.162687        -0.056958
 C         0.189991        -2.528948        -0.174191
 C         0.240557         0.015122         0.717692
 O         1.113188         0.115088         1.477664
 O        -0.593926         1.049010         0.605501
 H        -3.007033        -2.618632         0.929843
 H        -3.977616        -1.123435         0.359988
 H        -3.237319        -2.069722        -0.834065
 H        -1.822547        -0.790162         1.759693
 H        -2.614272         0.970639        -0.481244
 H        -1.513868        -1.070899        -1.942124
 H        -0.237057         0.228614        -1.825084
 H        -0.570608        -3.244287        -0.248323
 H         0.716135        -2.575908        -1.126980
 H         0.939780        -2.785237         0.584002
