19
Iteration:  2266charge 0 multiplicity 1
 C        -3.234724        -1.635020        -0.006767
 C        -2.116358        -0.649319         0.331650
 C        -1.506482         0.474483        -0.581796
 C        -0.515244        -0.780222        -1.220560
 C        -0.547224        -1.271370         0.256229
 C         0.030639        -2.654746         0.607814
 C         0.105459         0.043130         0.854657
 O         1.225386         0.210313         1.243923
 O        -0.616221         1.152743         0.348193
 H        -3.084047        -2.086291        -1.020714
 H        -3.120052        -2.519129         0.778728
 H        -4.241800        -1.134712         0.094871
 H        -2.379510        -0.268162         1.349692
 H        -1.815450         1.316066        -1.237238
 H        -1.065807        -1.438027        -1.817404
 H         0.524275        -0.618531        -1.491435
 H        -0.547345        -3.374717         0.070832
 H         1.082988        -2.834424         0.282356
 H        -0.013107        -2.825295         1.667737
