19
Iteration:  4858charge 0 multiplicity 1
 C        -3.040451        -1.792958         0.023694
 C        -1.995747        -0.906412         0.605793
 C        -1.609884         0.359808        -0.225427
 C        -0.847761        -0.323034        -1.293178
 C        -0.511007        -1.191967         0.169390
 C         0.088927        -2.528408         0.120923
 C         0.213654        -0.060968         0.751466
 O         1.333438         0.138408         1.050351
 O        -0.690980         1.154041         0.718834
 H        -3.182190        -2.866056         0.378866
 H        -4.076003        -1.382441         0.364827
 H        -3.061096        -1.848040        -1.155932
 H        -2.407421        -0.576948         1.658632
 H        -2.519517         0.904500        -0.485247
 H        -1.419805        -0.927732        -1.988233
 H        -0.175239         0.333168        -1.840820
 H        -0.589320        -3.131597        -0.478161
 H         0.985458        -2.419621        -0.557121
 H         0.283681        -3.094734         1.025299
