19
Iteration:  3373charge 0 multiplicity 1
 C        -3.060818        -1.701953         0.156736
 C        -1.940279        -0.788698         0.586465
 C        -1.699477         0.460338        -0.310504
 C        -1.019466        -0.502028        -1.314413
 C        -0.532776        -1.174007        -0.028314
 C         0.197578        -2.401106         0.253326
 C         0.224951        -0.000455         0.708804
 O         1.179931        -0.056872         1.462581
 O        -0.496707         1.074582         0.278214
 H        -3.720999        -1.126322        -0.497474
 H        -2.766926        -2.609289        -0.334707
 H        -3.523403        -2.143276         1.072974
 H        -1.861406        -0.636601         1.666159
 H        -2.475103         1.154495        -0.731342
 H        -1.949524        -1.065608        -1.638319
 H        -0.331673        -0.080283        -2.076328
 H         1.271025        -2.043477         0.338565
 H        -0.080445        -2.871618         1.322957
 H         0.155398        -3.230649        -0.551435
