19
Iteration:  1788
 C        -3.219093        -1.611817         0.079101
 C        -2.008811        -0.789016         0.444841
 C        -1.579010         0.344645        -0.459260
 C        -0.749404        -0.625686        -1.267662
 C        -0.552384        -1.185787         0.178645
 C        -0.024681        -2.463961         0.604978
 C         0.209150         0.015411         0.763485
 O         1.336864         0.096113         1.163978
 O        -0.546734         1.057504         0.316896
 H        -3.268023        -2.679690         0.502145
 H        -4.081176        -1.036567         0.591055
 H        -3.309175        -1.618875        -1.048718
 H        -2.213727        -0.221681         1.382921
 H        -2.244196         1.094227        -1.008045
 H        -1.193337        -1.395376        -1.940062
 H         0.207692        -0.168846        -1.678041
 H        -0.419465        -2.638987         1.611915
 H        -0.384359        -3.335558         0.071565
 H         1.045231        -2.326448         0.732300
