19
Iteration:  1080
 C        -3.225318        -1.524754         0.788098
 C        -1.944496        -0.692116         0.702539
 C        -1.663480         0.489709        -0.212112
 C        -1.129861        -0.580717        -1.195054
 C        -0.573032        -1.253621         0.045843
 C         0.117267        -2.603148         0.196034
 C         0.297838        -0.076690         0.474634
 O         1.471547         0.060172         0.658610
 O        -0.509077         1.055194         0.382337
 H        -3.051129        -2.589429         0.827715
 H        -3.749386        -1.293780         1.732948
 H        -3.969309        -1.403659         0.046272
 H        -1.916422        -0.335068         1.723602
 H        -2.461860         1.211037        -0.553800
 H        -1.913518        -1.061508        -1.735350
 H        -0.283437        -0.307170        -1.910189
 H        -0.494699        -3.524658         0.324112
 H         0.781069        -2.808609        -0.730611
 H         0.808186        -2.499981         1.043477
