19
Iteration:  3862charge 0 multiplicity 1
 C        -3.043877        -1.760416         0.217251
 C        -1.928036        -0.859362         0.562357
 C        -1.673452         0.423563        -0.180719
 C        -1.000329        -0.412745        -1.309554
 C        -0.482867        -1.175645        -0.060634
 C         0.193874        -2.492994        -0.054057
 C         0.187833         0.029486         0.770842
 O         1.258408         0.023891         1.296194
 O        -0.622896         1.120621         0.574352
 H        -2.590210        -2.664296        -0.254786
 H        -3.702922        -2.087699         1.060510
 H        -3.770032        -1.369247        -0.577361
 H        -1.853932        -0.759753         1.676810
 H        -2.506235         1.130132        -0.375088
 H        -1.770941        -0.945607        -1.833253
 H        -0.310242         0.215187        -1.848061
 H         1.344253        -2.403822        -0.310000
 H         0.085885        -2.930857         0.969285
 H        -0.445532        -3.178756        -0.726193
