19
Iteration:  1296charge 0 multiplicity 1
 C        -3.115099        -1.682637         0.531443
 C        -1.949393        -0.771470         0.715336
 C        -1.738720         0.460241        -0.300615
 C        -1.103312        -0.560914        -1.323014
 C        -0.575074        -1.168384         0.046399
 C        -0.027914        -2.555113         0.388145
 C         0.332427         0.018681         0.478953
 O         1.465327         0.033719         0.953375
 O        -0.421761         1.128712         0.322624
 H        -3.890722        -1.227590        -0.191447
 H        -2.824247        -2.725156         0.149892
 H        -3.677136        -1.890237         1.488800
 H        -1.678082        -0.526855         1.799381
 H        -2.510522         1.227339        -0.485368
 H        -1.965647        -1.096641        -1.689042
 H        -0.599133        -0.085831        -2.192295
 H        -0.709496        -3.108511         1.016065
 H         0.049053        -3.164626        -0.592605
 H         0.935522        -2.544216         0.871646
