19
Iteration:  4180charge 0 multiplicity 1
 C        -3.078459        -1.885866         0.037838
 C        -2.003381        -0.875275         0.540211
 C        -1.847323         0.521207        -0.115642
 C        -0.952551        -0.256251        -1.203644
 C        -0.495107        -1.163940         0.075044
 C         0.200339        -2.525723         0.200895
 C         0.215436        -0.013762         0.699854
 O         1.390887         0.071677         0.916719
 O        -0.600341         1.012863         0.704785
 H        -3.473492        -2.457122         0.888645
 H        -3.992601        -1.258705        -0.258520
 H        -2.745393        -2.456335        -0.817258
 H        -2.246326        -0.810164         1.639239
 H        -2.604864         1.278790        -0.048796
 H        -1.582670        -0.751922        -1.997533
 H        -0.068201         0.201001        -1.836290
 H         1.283043        -2.317162         0.227607
 H        -0.083560        -2.908674         1.126655
 H         0.085573        -3.140444        -0.633312
