19
Iteration:  2666
 C        -3.101618        -1.670700         0.051438
 C        -1.974677        -0.742091         0.466446
 C        -1.525351         0.336711        -0.524080
 C        -0.764254        -0.798133        -1.255727
 C        -0.531817        -1.190159         0.135981
 C        -0.031314        -2.600973         0.427987
 C         0.203574         0.089887         0.759717
 O         1.065994         0.243906         1.582011
 O        -0.464093         1.217715         0.163901
 H        -3.374401        -1.736012        -1.069004
 H        -2.789185        -2.670373         0.412725
 H        -4.004085        -1.323480         0.684088
 H        -2.119805        -0.364631         1.468850
 H        -2.072287         0.997617        -1.104419
 H        -1.487424        -1.458298        -1.763402
 H         0.177279        -0.684078        -1.770426
 H        -0.471022        -3.336831        -0.171895
 H         1.099551        -2.694163         0.229410
 H        -0.199985        -2.857380         1.458767
