19
Iteration:  3597charge 0 multiplicity 1
 C        -3.034513        -1.807005         0.254755
 C        -1.940093        -0.758006         0.622803
 C        -1.711879         0.402978        -0.260595
 C        -0.945279        -0.399350        -1.327870
 C        -0.435000        -1.143595         0.008336
 C         0.085929        -2.501077        -0.026364
 C         0.260671         0.045900         0.705918
 O         1.130641        -0.000924         1.525232
 O        -0.540441         1.113228         0.330737
 H        -3.791387        -2.056775         1.013981
 H        -3.712750        -1.507502        -0.503866
 H        -2.495449        -2.727799         0.059441
 H        -1.776637        -0.491906         1.692180
 H        -2.477299         1.085921        -0.630994
 H        -1.791341        -1.036504        -1.702369
 H        -0.202206        -0.122335        -1.994785
 H         1.066959        -2.572268        -0.587108
 H         0.542637        -2.864013         0.983321
 H        -0.481218        -3.238426        -0.691843
