19
Iteration:  3201charge 0 multiplicity 1
 C        -3.251517        -1.689388        -0.022016
 C        -2.026014        -0.833197         0.477218
 C        -1.700347         0.417197        -0.282458
 C        -0.599726        -0.500679        -1.241379
 C        -0.575275        -1.181757         0.172086
 C         0.105700        -2.568964         0.377966
 C         0.204510         0.006387         0.730445
 O         1.338620         0.184901         1.134984
 O        -0.651420         1.022178         0.512504
 H        -3.998870        -2.127495         0.651115
 H        -3.592097        -1.058530        -0.882298
 H        -2.841778        -2.684761        -0.384482
 H        -2.208032        -0.541163         1.534800
 H        -2.466178         1.234205        -0.572326
 H        -1.116709        -1.026687        -2.100806
 H         0.327699         0.020702        -1.666057
 H        -0.384743        -3.409822        -0.012589
 H         1.149560        -2.504538         0.181511
 H        -0.067491        -2.670925         1.399527
