19
Iteration:  2343charge 0 multiplicity 1
 C        -3.130126        -1.639593         0.110641
 C        -2.028663        -0.657762         0.445002
 C        -1.529430         0.437832        -0.659376
 C        -0.700577        -0.696148        -1.326998
 C        -0.499690        -1.176476         0.116236
 C         0.079422        -2.505106         0.555696
 C         0.152345         0.034854         0.784252
 O         1.010280         0.067637         1.624218
 O        -0.460087         1.060365         0.129357
 H        -3.007039        -2.117852        -0.903097
 H        -3.001416        -2.554085         0.792571
 H        -4.113211        -1.156589         0.132404
 H        -2.325915        -0.169399         1.398805
 H        -2.177935         1.229237        -0.968648
 H        -1.327445        -1.445265        -1.867080
 H         0.153225        -0.449839        -1.919699
 H        -0.683959        -3.286455         0.622800
 H         0.773111        -2.853349        -0.171015
 H         0.470902        -2.473793         1.568681
