19
Iteration:  3851
 C        -3.037705        -1.753287         0.214666
 C        -1.831827        -0.864619         0.634823
 C        -1.701308         0.449036        -0.222827
 C        -0.979221        -0.440055        -1.371110
 C        -0.531673        -1.173936        -0.050163
 C         0.170224        -2.548033        -0.146040
 C         0.166174        -0.000669         0.811380
 O         1.243401         0.102874         1.403108
 O        -0.622553         1.132718         0.558139
 H        -2.858491        -2.789561        -0.157145
 H        -3.446911        -1.884784         1.226783
 H        -3.829178        -1.177135        -0.362572
 H        -1.778749        -0.676908         1.745784
 H        -2.553939         1.140988        -0.381537
 H        -1.715850        -1.007986        -1.932260
 H        -0.273562        -0.175415        -2.149390
 H         1.281303        -2.538614        -0.576382
 H         0.190998        -3.144306         0.805769
 H        -0.320854        -3.192366        -0.986089
