19
Iteration:  2017
 C        -3.193874        -1.572107         0.033255
 C        -2.054424        -0.717409         0.334935
 C        -1.594088         0.345326        -0.593592
 C        -0.579542        -0.627180        -1.332668
 C        -0.444881        -1.195100         0.208455
 C        -0.023005        -2.640809         0.592823
 C         0.190942        -0.029497         0.799703
 O         1.232022         0.241670         1.388458
 O        -0.639979         1.057144         0.375959
 H        -3.132006        -2.080609        -0.889291
 H        -3.575196        -2.244797         0.813595
 H        -3.968592        -0.885207        -0.185183
 H        -2.203189        -0.350586         1.375892
 H        -2.179955         0.993840        -1.287290
 H        -1.047972        -1.287149        -2.051430
 H         0.492969        -0.342457        -1.670393
 H        -0.427939        -3.526683        -0.015030
 H         1.117458        -2.693846         0.594701
 H        -0.477253        -2.778410         1.620008
