19
Iteration:  3930charge 0 multiplicity 1
 C        -3.058534        -1.747374        -0.051872
 C        -2.010882        -0.899875         0.616946
 C        -1.756720         0.414984        -0.085354
 C        -0.951737        -0.395304        -1.309001
 C        -0.519040        -1.180650         0.153112
 C         0.095298        -2.538447         0.164989
 C         0.295374         0.024147         0.679288
 O         1.473385         0.132929         0.941451
 O        -0.743103         1.052680         0.767737
 H        -2.876411        -2.750801         0.309822
 H        -4.064867        -1.340689         0.226292
 H        -2.862765        -1.663365        -1.111947
 H        -2.154158        -0.661713         1.711455
 H        -2.597895         1.115735        -0.205215
 H        -1.441905        -0.845268        -2.144108
 H        -0.053342         0.176715        -1.482943
 H         1.159733        -2.558036        -0.430891
 H         0.335496        -2.941104         1.193733
 H        -0.568859        -3.291943        -0.375808
