19
Iteration:  3629charge 0 multiplicity 1
 C        -3.030820        -1.778513         0.163978
 C        -1.937536        -0.791116         0.528441
 C        -1.695598         0.457273        -0.213715
 C        -0.988346        -0.400143        -1.382062
 C        -0.543501        -1.164470        -0.022760
 C         0.157439        -2.450126         0.196922
 C         0.200012         0.016455         0.666293
 O         1.226983        -0.037405         1.286325
 O        -0.559435         1.115789         0.538137
 H        -3.836488        -1.627190         0.882241
 H        -3.157833        -1.834312        -0.903794
 H        -2.659662        -2.777250         0.338821
 H        -1.849640        -0.815011         1.619131
 H        -2.521626         1.166005        -0.305285
 H        -1.774497        -0.972714        -1.935085
 H        -0.213680        -0.217408        -2.071059
 H         1.226616        -2.164232         0.110474
 H        -0.066510        -2.926645         1.253157
 H        -0.084835        -3.414456        -0.375247
