19
Iteration:  4267
 C        -3.036010        -1.797443         0.373435
 C        -1.941851        -0.802579         0.610663
 C        -1.718028         0.492569        -0.245616
 C        -1.025790        -0.403478        -1.340930
 C        -0.390703        -1.097031        -0.057430
 C         0.209724        -2.454130        -0.093653
 C         0.234355        -0.075428         0.657888
 O         1.135228        -0.044460         1.464542
 O        -0.601870         1.109490         0.428225
 H        -2.725704        -2.653709         0.958664
 H        -4.051154        -1.622721         0.736833
 H        -3.177461        -2.054451        -0.626746
 H        -1.768881        -0.649753         1.676420
 H        -2.478078         1.244965        -0.316500
 H        -1.654093        -1.015526        -2.048057
 H        -0.323476         0.104760        -2.107253
 H         1.000541        -2.430850        -0.907163
 H         0.731450        -2.640337         0.836876
 H        -0.387530        -3.333285        -0.283803
