19
Iteration:  3801charge 0 multiplicity 1
 C        -3.106852        -1.816855         0.434976
 C        -1.897615        -0.833312         0.578809
 C        -1.689345         0.475837        -0.311594
 C        -0.942056        -0.386220        -1.290659
 C        -0.510482        -1.170034        -0.015724
 C         0.236389        -2.516888        -0.225559
 C         0.245638         0.006276         0.745549
 O         1.109722         0.011757         1.569262
 O        -0.576526         1.107675         0.368033
 H        -2.948435        -2.386700        -0.478494
 H        -3.405108        -2.480967         1.273402
 H        -3.874176        -1.071690         0.249235
 H        -1.703610        -0.564005         1.625177
 H        -2.425586         1.265995        -0.529685
 H        -1.490249        -1.012271        -2.020723
 H        -0.305258         0.169206        -2.034918
 H         0.908414        -2.365890        -1.000587
 H         0.735347        -2.947661         0.615856
 H        -0.370596        -3.285059        -0.623130
