19
Iteration:  3730
 C        -3.134019        -1.840953         0.050003
 C        -1.953630        -0.970145         0.669234
 C        -1.763320         0.554256        -0.172941
 C        -0.915944        -0.358759        -1.238143
 C        -0.519569        -1.151203         0.062929
 C         0.132489        -2.516517         0.147634
 C         0.246281        -0.025555         0.661751
 O         1.313041         0.117208         1.184894
 O        -0.558500         1.092574         0.493123
 H        -3.462959        -1.244390        -0.809370
 H        -2.779702        -2.760035        -0.333788
 H        -3.920558        -2.043122         0.797999
 H        -1.991151        -0.867839         1.777710
 H        -2.463570         1.367198        -0.362604
 H        -1.415337        -1.006659        -1.953319
 H        -0.155951         0.010294        -1.822330
 H         0.997659        -2.875835        -0.537328
 H         0.424516        -2.610367         1.246482
 H        -0.725446        -3.275969         0.034463
