19
Iteration:  2488charge 0 multiplicity 1
 C        -3.263594        -1.605568        -0.077019
 C        -2.034030        -0.797529         0.356571
 C        -1.602186         0.383293        -0.617478
 C        -0.558330        -0.672595        -1.269554
 C        -0.535627        -1.217070         0.226067
 C         0.018061        -2.588541         0.768630
 C         0.223129         0.059060         0.753639
 O         1.294484         0.109134         1.262499
 O        -0.658558         1.194673         0.407866
 H        -3.331167        -1.723375        -1.177250
 H        -3.292417        -2.615131         0.462252
 H        -4.213728        -1.103695         0.274810
 H        -2.330560        -0.477816         1.392815
 H        -2.053089         1.217544        -1.211423
 H        -0.996091        -1.349060        -1.988009
 H         0.327681        -0.287278        -1.779879
 H        -0.411712        -3.402855         0.157241
 H         1.070589        -2.621118         0.703537
 H        -0.227798        -2.886459         1.797289
