19
Iteration:  2326charge 0 multiplicity 1
 C        -3.150480        -1.627755        -0.086633
 C        -1.977316        -0.709291         0.441154
 C        -1.535783         0.417261        -0.522145
 C        -0.885580        -0.667539        -1.302026
 C        -0.532967        -1.269506         0.190981
 C         0.134797        -2.618963         0.687445
 C         0.252983         0.001123         0.661871
 O         0.998374         0.127016         1.568938
 O        -0.425963         1.193371         0.173539
 H        -3.083088        -1.919925        -1.128002
 H        -3.279628        -2.474489         0.621011
 H        -4.123533        -1.096488         0.010681
 H        -2.088528        -0.417157         1.490629
 H        -2.051633         1.160953        -1.174331
 H        -1.504444        -1.247275        -2.031779
 H        -0.026917        -0.458416        -2.024809
 H        -0.639815        -3.426845         0.884691
 H         1.025773        -2.838625         0.006636
 H         0.627827        -2.368528         1.668621
