19
Iteration:  2490charge 0 multiplicity 1
 C        -3.258644        -1.612367        -0.078602
 C        -2.015533        -0.788937         0.359141
 C        -1.603617         0.403398        -0.592091
 C        -0.557226        -0.682882        -1.280682
 C        -0.539217        -1.215887         0.227052
 C         0.003711        -2.610876         0.766332
 C         0.217358         0.052893         0.756943
 O         1.293161         0.120826         1.258088
 O        -0.666952         1.198989         0.404177
 H        -3.308936        -1.730989        -1.192127
 H        -3.296717        -2.595326         0.461801
 H        -4.224388        -1.088655         0.291196
 H        -2.319393        -0.493186         1.352976
 H        -2.062262         1.199274        -1.249714
 H        -0.945371        -1.380542        -1.979534
 H         0.386315        -0.292595        -1.799335
 H        -0.429678        -3.365873         0.183379
 H         1.094201        -2.687882         0.699512
 H        -0.190780        -2.880392         1.786422
