19
Iteration:  3367charge 0 multiplicity 1
 C        -3.079621        -1.726057         0.175697
 C        -1.924125        -0.837110         0.618708
 C        -1.637445         0.508028        -0.284709
 C        -1.038759        -0.530058        -1.344514
 C        -0.526720        -1.169733        -0.033675
 C         0.218308        -2.405270         0.246537
 C         0.219948         0.006180         0.691966
 O         1.142030        -0.063053         1.496218
 O        -0.500125         1.097608         0.238064
 H        -3.839975        -1.121524        -0.339244
 H        -2.744472        -2.616198        -0.454487
 H        -3.526461        -2.165382         1.050016
 H        -1.987111        -0.515094         1.681202
 H        -2.382325         1.217015        -0.617090
 H        -1.865893        -1.044384        -1.738179
 H        -0.261451        -0.144888        -2.013878
 H         1.283033        -2.235814         0.245820
 H        -0.041669        -2.707118         1.207399
 H         0.001845        -3.037181        -0.560521
