19
Iteration:  2658charge 0 multiplicity 1
 C        -3.123824        -1.599258         0.087872
 C        -1.966439        -0.692921         0.495655
 C        -1.489112         0.379191        -0.542568
 C        -0.771010        -0.796584        -1.317157
 C        -0.501157        -1.219613         0.225698
 C         0.028597        -2.623842         0.403588
 C         0.221464         0.078917         0.775887
 O         1.060831         0.239137         1.640560
 O        -0.540983         1.147141         0.094893
 H        -3.247105        -1.684494        -1.000919
 H        -2.821099        -2.650063         0.396229
 H        -4.119847        -1.448999         0.555213
 H        -2.167718        -0.200456         1.429990
 H        -2.237909         0.971148        -1.123057
 H        -1.480387        -1.571888        -1.788839
 H         0.080922        -0.534284        -1.927017
 H        -0.417328        -3.252708        -0.367517
 H         1.057326        -2.667121         0.189562
 H        -0.063075        -3.100511         1.376151
