19
Iteration:  4100
 C        -3.140500        -1.821536         0.227098
 C        -1.941131        -0.847046         0.569833
 C        -1.761124         0.369605        -0.209594
 C        -0.895882        -0.434289        -1.253221
 C        -0.474658        -1.158179         0.016879
 C         0.108623        -2.509581        -0.128363
 C         0.269503         0.042187         0.721456
 O         1.298392         0.176326         1.326810
 O        -0.592485         1.076500         0.556510
 H        -2.807656        -2.827052         0.442976
 H        -3.832082        -1.504398         0.948579
 H        -3.641318        -1.782052        -0.735337
 H        -1.885709        -0.918270         1.648397
 H        -2.507048         1.149919        -0.545562
 H        -1.351677        -1.068475        -2.082231
 H        -0.153287         0.272857        -1.776015
 H         0.830922        -2.587425        -0.909237
 H         0.521092        -2.919355         0.806126
 H        -0.758173        -3.210358        -0.201903
