19
Iteration:  2739
 C        -3.137993        -1.761257        -0.184568
 C        -2.103511        -0.803623         0.417613
 C        -1.506493         0.442718        -0.497332
 C        -0.671963        -0.730909        -1.185219
 C        -0.604834        -1.128694         0.275289
 C         0.023854        -2.455821         0.698359
 C         0.184385         0.042983         0.810637
 O         1.322098         0.109141         1.197659
 O        -0.627830         1.163951         0.343887
 H        -2.814018        -2.417080        -0.981480
 H        -3.381954        -2.361543         0.649328
 H        -4.001861        -1.216534        -0.481573
 H        -2.603223        -0.428121         1.373769
 H        -2.219774         1.049994        -1.036259
 H        -1.394798        -1.119491        -1.850499
 H         0.174398        -0.418538        -1.868542
 H        -0.591549        -3.370796         0.485998
 H         1.097345        -2.541507         0.259485
 H         0.113446        -2.466521         1.815159
