19
Iteration:  2216charge 0 multiplicity 1
 C        -3.022389        -1.760496        -0.018807
 C        -1.953627        -0.696610         0.475276
 C        -1.599326         0.350925        -0.542953
 C        -0.725842        -0.570536        -1.248425
 C        -0.506230        -1.220909         0.164635
 C        -0.176744        -2.583363         0.659846
 C         0.228690         0.050622         0.708750
 O         1.150263         0.129659         1.455377
 O        -0.481628         1.185098         0.155288
 H        -2.686205        -2.172054        -0.960114
 H        -3.292021        -2.464784         0.695184
 H        -3.881442        -1.190172        -0.296616
 H        -2.100497        -0.541667         1.545570
 H        -2.319486         0.975732        -0.998602
 H        -1.392748        -1.276434        -1.893186
 H         0.083251        -0.074883        -1.812923
 H        -0.396706        -3.410004        -0.118926
 H         0.803353        -2.732606         1.101930
 H        -0.760542        -2.638472         1.631938
