19
Iteration:   635
 C        -3.005062        -1.548171         1.043937
 C        -1.847307        -0.580324         0.838147
 C        -1.744799         0.521853        -0.173454
 C        -1.371147        -0.596742        -1.191311
 C        -0.590679        -1.226104         0.098802
 C         0.019998        -2.658841         0.214115
 C         0.365971        -0.036285         0.259317
 O         1.542159        -0.076285         0.419121
 O        -0.538927         1.129565         0.306549
 H        -2.862267        -2.026217         2.024601
 H        -4.005136        -1.097440         1.154341
 H        -2.965355        -2.359391         0.301659
 H        -1.527009        -0.418104         1.873986
 H        -2.547775         1.234352        -0.253753
 H        -2.253421        -1.102166        -1.584437
 H        -0.721033        -0.306632        -1.976642
 H        -0.664305        -3.229767         0.831908
 H         0.175228        -3.090631        -0.737026
 H         1.092494        -2.622189         0.687472
