19
Iteration:  2440charge 0 multiplicity 1
 C        -3.135498        -1.606339        -0.069793
 C        -1.982081        -0.689630         0.483575
 C        -1.544252         0.349805        -0.516832
 C        -0.830245        -0.688009        -1.233998
 C        -0.561841        -1.222502         0.224509
 C         0.140272        -2.601046         0.624905
 C         0.160375         0.067819         0.692318
 O         1.072348         0.082327         1.485857
 O        -0.447703         1.185708         0.165721
 H        -2.969058        -1.854690        -1.113885
 H        -3.203605        -2.522072         0.451988
 H        -4.061695        -1.099160        -0.055650
 H        -2.339969        -0.262559         1.430491
 H        -2.186078         0.962425        -1.133722
 H        -1.556281        -1.176552        -1.935701
 H         0.040580        -0.465775        -1.844062
 H         0.096943        -3.463916        -0.079568
 H         1.233470        -2.355118         0.892333
 H        -0.325295        -3.028456         1.556807
