19
Iteration:  1483
 C        -3.243064        -1.558088         0.352917
 C        -1.952708        -0.773472         0.652321
 C        -1.661625         0.333827        -0.307094
 C        -0.956360        -0.634487        -1.303027
 C        -0.460459        -1.226104         0.099286
 C         0.056791        -2.695807         0.299347
 C         0.306611         0.042338         0.599996
 O         1.314172         0.210611         1.223379
 O        -0.479579         1.160445         0.202234
 H        -3.116820        -2.607560         0.306451
 H        -3.923491        -1.275127         1.214620
 H        -3.812470        -1.147032        -0.462925
 H        -1.844724        -0.472022         1.725515
 H        -2.440608         1.019892        -0.630633
 H        -1.786559        -1.335948        -1.669745
 H        -0.307903        -0.318242        -2.075986
 H        -0.751639        -3.227700         0.860120
 H         0.262088        -3.340403        -0.616404
 H         0.995917        -2.744589         0.851953
