19
Iteration:  4628charge 0 multiplicity 1
 C        -3.158418        -1.762632         0.044850
 C        -2.020388        -0.901483         0.565097
 C        -1.705944         0.456650        -0.184126
 C        -0.797645        -0.400728        -1.189015
 C        -0.571770        -1.251689         0.066879
 C         0.166349        -2.606961         0.046503
 C         0.255512        -0.015418         0.761571
 O         1.425132         0.207174         1.067533
 O        -0.756677         1.132638         0.708481
 H        -3.238988        -2.655099         0.715505
 H        -4.194542        -1.234519        -0.060286
 H        -2.934379        -2.302842        -0.905395
 H        -2.052409        -0.656151         1.673681
 H        -2.497796         1.181067        -0.429254
 H        -1.114526        -1.014563        -2.091326
 H         0.056550         0.251163        -1.426020
 H        -0.221367        -3.239155        -0.799309
 H         1.184934        -2.417781        -0.270741
 H        -0.012063        -3.216772         0.894237
