19
Iteration:  3061charge 0 multiplicity 1
 C        -3.319085        -1.695197         0.307062
 C        -1.997019        -0.787564         0.497098
 C        -1.612541         0.377338        -0.545228
 C        -0.647834        -0.543076        -1.291584
 C        -0.464189        -1.231820         0.131461
 C         0.174046        -2.572093         0.183835
 C         0.211355         0.053380         0.730471
 O         1.074712         0.122733         1.541198
 O        -0.550969         1.135554         0.264033
 H        -3.151164        -2.581950        -0.221744
 H        -3.764289        -1.821071         1.315300
 H        -3.992811        -1.127818        -0.328878
 H        -2.035212        -0.316285         1.551778
 H        -2.074424         1.156435        -1.281960
 H        -1.142193        -1.307239        -1.924013
 H         0.201481        -0.073917        -1.839394
 H        -0.302898        -3.509793        -0.302053
 H         1.209152        -2.468797        -0.183084
 H         0.215261        -2.951924         1.226837
