19
Iteration:  3000
 C        -3.069411        -1.776352        -0.048709
 C        -1.971076        -0.803135         0.480579
 C        -1.663404         0.402648        -0.355841
 C        -0.767320        -0.519829        -1.295563
 C        -0.519051        -1.187904         0.145464
 C        -0.038449        -2.524296         0.560608
 C         0.202076         0.032420         0.691535
 O         1.249552         0.123990         1.285687
 O        -0.528333         1.144494         0.354348
 H        -3.355007        -1.799578        -1.187248
 H        -2.705606        -2.838271         0.124044
 H        -4.029720        -1.715716         0.562682
 H        -2.211317        -0.648673         1.513959
 H        -2.297175         1.207111        -0.644065
 H        -1.348033        -1.120621        -1.967165
 H         0.068348        -0.016799        -1.901044
 H        -0.510646        -3.332390        -0.037350
 H         1.030135        -2.581614         0.652146
 H        -0.570657        -2.586780         1.553385
