19
Iteration:  4972
 C        -3.168187        -1.862130         0.335754
 C        -1.956708        -0.850116         0.458570
 C        -1.681626         0.503298        -0.276725
 C        -0.952595        -0.378377        -1.317195
 C        -0.458537        -1.145388        -0.058410
 C         0.269684        -2.502078        -0.148744
 C         0.238057         0.028697         0.747251
 O         1.145552        -0.025132         1.553206
 O        -0.559261         1.143853         0.463835
 H        -2.905614        -2.559807         1.201634
 H        -4.174428        -1.479211         0.600382
 H        -3.208794        -2.367344        -0.628336
 H        -1.922257        -0.662632         1.600235
 H        -2.428215         1.299627        -0.349573
 H        -1.648110        -0.948517        -1.975217
 H        -0.298033         0.091173        -2.095875
 H        -0.210718        -3.154927        -0.883884
 H         1.289364        -2.339953        -0.396070
 H         0.328021        -2.964445         0.825835
