19
Iteration:  1730
 C        -3.115540        -1.643103         0.210177
 C        -1.933577        -0.708835         0.570221
 C        -1.598644         0.394530        -0.443780
 C        -0.880239        -0.732403        -1.327795
 C        -0.533352        -1.141531         0.086664
 C        -0.159934        -2.531246         0.419517
 C         0.303096         0.021824         0.692285
 O         1.266921         0.175328         1.406023
 O        -0.505341         1.083714         0.209124
 H        -3.820209        -1.859535         1.072787
 H        -3.577139        -1.384264        -0.732986
 H        -2.685903        -2.625827         0.029001
 H        -1.989919        -0.265242         1.559261
 H        -2.094285         1.183156        -0.924526
 H        -1.481060        -1.586600        -1.784112
 H        -0.046127        -0.504752        -1.962226
 H        -0.904605        -3.214689         0.793207
 H         0.446973        -2.937677        -0.464228
 H         0.672903        -2.513242         1.130104
