19
Iteration:  3129charge 0 multiplicity 1
 C        -3.046315        -1.738098         0.070213
 C        -1.941804        -0.738646         0.565102
 C        -1.656949         0.487655        -0.396300
 C        -0.920555        -0.513637        -1.327005
 C        -0.496681        -1.133858         0.105037
 C         0.125614        -2.589316         0.292494
 C         0.202362         0.025477         0.753496
 O         1.064394         0.022116         1.592767
 O        -0.464753         1.135712         0.143385
 H        -2.973148        -2.546387         0.739980
 H        -4.034120        -1.285961         0.212093
 H        -2.959381        -2.223036        -0.847441
 H        -2.165390        -0.632050         1.645429
 H        -2.479666         1.189555        -0.569132
 H        -1.455631        -1.292327        -1.724867
 H        -0.117891        -0.161785        -1.992994
 H        -0.544801        -3.528732         0.475592
 H         0.735323        -2.729834        -0.610160
 H         0.894935        -2.563832         1.185939
