19
Iteration:   228
 C        -2.984686        -1.515955         1.361785
 C        -1.656479        -0.689478         1.228897
 C        -1.739934         0.465594         0.001272
 C        -1.631283        -0.657606        -1.028912
 C        -0.640318        -1.217790         0.029192
 C        -0.085692        -2.615697        -0.092528
 C         0.411738        -0.054265         0.134996
 O         1.603922         0.022274         0.264355
 O        -0.415565         1.147795         0.023819
 H        -2.841229        -2.516643         0.937669
 H        -3.254143        -1.586848         2.448415
 H        -3.732629        -0.957670         0.783629
 H        -1.163709        -0.409619         2.199952
 H        -2.558919         1.217925        -0.073343
 H        -2.533475        -1.244311        -1.052550
 H        -1.250783        -0.396825        -2.033403
 H         0.662253        -3.009341         0.671259
 H        -0.959726        -3.312685        -0.037694
 H         0.245897        -2.742481        -1.073310
