19
Iteration:   735charge 0 multiplicity 1
 C        -3.295047        -1.472830         1.234314
 C        -1.875552        -0.765231         0.878132
 C        -1.788561         0.385106        -0.250643
 C        -1.241196        -0.562347        -1.202333
 C        -0.530966        -1.220524         0.045613
 C         0.133106        -2.560635         0.039461
 C         0.327406        -0.008918         0.394188
 O         1.531293        -0.021133         0.575590
 O        -0.426114         1.092518         0.136347
 H        -3.075334        -2.139168         2.054582
 H        -4.083853        -0.677920         1.478811
 H        -3.655260        -2.140107         0.423682
 H        -1.610532        -0.375851         1.884281
 H        -2.411187         1.289426        -0.508278
 H        -1.942582        -1.266350        -1.584087
 H        -0.496884        -0.188685        -1.941071
 H         1.150575        -2.679839         0.360682
 H        -0.509402        -3.026544         0.801097
 H        -0.097114        -3.138142        -1.015596
