19
Iteration:  2896
 C        -3.166831        -1.624536         0.092202
 C        -1.944208        -0.791192         0.490036
 C        -1.510562         0.355949        -0.486053
 C        -0.746686        -0.641180        -1.344960
 C        -0.488497        -1.239908         0.128100
 C         0.037218        -2.674523         0.431867
 C         0.223068         0.069696         0.765512
 O         1.047871         0.305581         1.578212
 O        -0.536632         1.111654         0.158846
 H        -3.911425        -1.567202         0.850427
 H        -3.579629        -1.273516        -0.824541
 H        -2.944216        -2.685944        -0.068120
 H        -2.023998        -0.498953         1.583803
 H        -2.213522         1.064813        -0.965383
 H        -1.434061        -1.459958        -1.818256
 H         0.117535        -0.297555        -1.859790
 H        -0.741505        -3.439731         0.113986
 H         1.045471        -2.799071        -0.182463
 H         0.346422        -2.820646         1.507512
