19
Iteration:  2218charge 0 multiplicity 1
 C        -3.038989        -1.768910        -0.017016
 C        -1.967762        -0.674759         0.468991
 C        -1.595225         0.346653        -0.556332
 C        -0.717596        -0.587938        -1.246250
 C        -0.493959        -1.214500         0.166811
 C        -0.189084        -2.580137         0.647262
 C         0.224119         0.045298         0.722797
 O         1.175010         0.129720         1.450530
 O        -0.492104         1.188362         0.164660
 H        -2.667725        -2.203517        -0.943574
 H        -3.258384        -2.493189         0.706951
 H        -3.916208        -1.174951        -0.285896
 H        -2.137353        -0.529761         1.549222
 H        -2.415559         1.004588        -1.004741
 H        -1.279105        -1.346668        -1.874649
 H         0.083641        -0.006362        -1.774523
 H        -0.380206        -3.391667        -0.096127
 H         0.847951        -2.764333         1.090466
 H        -0.772210        -2.625473         1.599000
