19
Iteration:  1881
 C        -3.078913        -1.671872         0.199945
 C        -1.972721        -0.598227         0.448806
 C        -1.435617         0.400397        -0.576907
 C        -0.753665        -0.682786        -1.323920
 C        -0.521334        -1.238233         0.153949
 C        -0.113146        -2.703011         0.432123
 C         0.193449         0.052734         0.754708
 O         1.081536         0.284662         1.516071
 O        -0.485086         1.065783         0.188338
 H        -3.071897        -2.086674        -0.817122
 H        -3.059547        -2.416386         0.949322
 H        -4.012541        -1.081591         0.235703
 H        -2.189253        -0.162243         1.424932
 H        -2.102801         1.146739        -0.882132
 H        -1.486813        -1.444706        -1.747243
 H         0.104979        -0.567070        -1.895424
 H         0.979144        -2.827005         0.376113
 H        -0.397313        -3.130433         1.431814
 H        -0.437263        -3.395771        -0.363514
