19
Iteration:   528charge 0 multiplicity 1
 C        -2.969637        -1.594980         1.299747
 C        -1.783680        -0.621339         1.044549
 C        -1.741216         0.516511        -0.252672
 C        -1.426300        -0.657554        -1.284323
 C        -0.552928        -1.205558        -0.019776
 C        -0.045700        -2.601177         0.173413
 C         0.332671        -0.023710         0.233056
 O         1.477085        -0.043970         0.551946
 O        -0.434815         1.147119         0.074907
 H        -2.716589        -2.632496         1.121316
 H        -3.523971        -1.575640         2.299893
 H        -3.753469        -1.414973         0.545951
 H        -1.463845        -0.290615         2.063917
 H        -2.427786         1.311446        -0.483171
 H        -2.265292        -1.329527        -1.542978
 H        -0.873361        -0.220960        -2.190921
 H         0.769450        -2.858781        -0.450712
 H         0.406209        -2.637844         1.158658
 H        -0.885550        -3.407377         0.124203
