19
Iteration:   268charge 0 multiplicity 1
 C        -3.009278        -1.432818         1.581090
 C        -1.752814        -0.597735         1.127050
 C        -1.831524         0.461760        -0.060074
 C        -1.518174        -0.542118        -1.213535
 C        -0.548083        -1.258044        -0.102311
 C         0.057106        -2.631435        -0.067755
 C         0.353327        -0.064274         0.159812
 O         1.557192        -0.091280         0.263518
 O        -0.494531         1.032100         0.171065
 H        -3.177085        -2.152915         0.773830
 H        -2.938814        -1.880190         2.643933
 H        -3.872949        -0.753256         1.514190
 H        -1.200070        -0.175424         1.964873
 H        -2.547054         1.218776        -0.226234
 H        -2.373413        -1.208861        -1.455328
 H        -0.892874        -0.107030        -2.106324
 H         1.172080        -2.450932        -0.160376
 H        -0.189714        -3.084117         0.928436
 H        -0.291453        -3.353496        -0.922953
