19
Iteration:  4935
 C        -3.021614        -1.717477         0.076366
 C        -1.921868        -0.795953         0.559350
 C        -1.810453         0.441791        -0.168859
 C        -0.921766        -0.410436        -1.317263
 C        -0.559159        -1.158054         0.042050
 C         0.188458        -2.428779         0.107270
 C         0.246225         0.013863         0.648618
 O         1.272181        -0.069601         1.275501
 O        -0.644155         1.066193         0.575859
 H        -2.735248        -2.591756         0.706964
 H        -4.101863        -1.473050         0.238012
 H        -2.854578        -2.250679        -0.935942
 H        -1.924500        -0.804821         1.688641
 H        -2.685560         1.100809        -0.308670
 H        -1.599402        -0.911756        -1.980394
 H        -0.110069         0.205803        -1.656114
 H        -0.192580        -3.335104        -0.348968
 H         1.075977        -2.110886        -0.489461
 H         0.362144        -2.775914         1.147978
