19
Iteration:  3047
 C        -3.207328        -1.672847         0.218537
 C        -2.024525        -0.782767         0.478758
 C        -1.540351         0.400448        -0.486772
 C        -0.696324        -0.636245        -1.259281
 C        -0.503782        -1.156752         0.159948
 C         0.093602        -2.554473         0.237313
 C         0.208816         0.000130         0.759849
 O         1.148233         0.210239         1.496624
 O        -0.570842         1.065967         0.242764
 H        -3.015913        -2.554042        -0.535674
 H        -3.622252        -2.163184         1.126011
 H        -4.118860        -1.032235        -0.190814
 H        -2.083116        -0.418816         1.554904
 H        -2.368794         1.061579        -0.738792
 H        -1.270224        -1.322545        -2.041375
 H         0.214504        -0.215128        -1.739128
 H        -0.409789        -3.018327        -0.572941
 H         1.161669        -2.453629        -0.087180
 H        -0.001669        -3.129073         1.148072
