19
Iteration:   883charge 0 multiplicity 1
 C        -3.180344        -1.551385         0.838516
 C        -1.809092        -0.709460         0.901602
 C        -1.721437         0.424690        -0.127820
 C        -1.255411        -0.532192        -1.127240
 C        -0.676236        -1.224454         0.080855
 C         0.055588        -2.575104         0.202632
 C         0.329861        -0.104358         0.423681
 O         1.510461         0.106702         0.543955
 O        -0.436885         1.014580         0.186342
 H        -3.385926        -2.096543         1.799101
 H        -4.001096        -0.822290         0.690275
 H        -3.254253        -2.287624         0.023764
 H        -1.701575        -0.412279         1.953237
 H        -2.465836         1.228643        -0.289846
 H        -1.982663        -1.212833        -1.624524
 H        -0.448300        -0.204673        -1.821524
 H        -0.294757        -3.429258         0.808602
 H         0.056561        -2.728818        -0.921308
 H         1.084183        -2.372553         0.407448
