19
Iteration:  4282charge 0 multiplicity 1
 C        -2.969047        -1.810250         0.413592
 C        -1.864401        -0.788405         0.593249
 C        -1.714525         0.425228        -0.344228
 C        -1.039946        -0.356618        -1.387635
 C        -0.551846        -1.140414        -0.132336
 C         0.273176        -2.396384        -0.051299
 C         0.212822         0.061111         0.685311
 O         1.174979        -0.171691         1.518414
 O        -0.624574         1.090530         0.453571
 H        -2.692802        -2.854611         0.657925
 H        -3.771790        -1.357845         1.048864
 H        -3.414729        -1.902606        -0.658725
 H        -1.936772        -0.432152         1.654696
 H        -2.497597         1.177017        -0.654260
 H        -1.851957        -0.912607        -1.850104
 H        -0.325555         0.128142        -1.990226
 H         0.802896        -2.532331        -0.919180
 H         0.893289        -2.451280         0.834524
 H        -0.483178        -3.162504         0.060005
