19
Iteration:  1270charge 0 multiplicity 1
 C        -2.992579        -1.687457         0.468460
 C        -1.966024        -0.649822         0.839891
 C        -1.702967         0.501445        -0.229524
 C        -1.194957        -0.634550        -1.182584
 C        -0.547065        -1.157965         0.106207
 C        -0.073592        -2.589754         0.234007
 C         0.355246         0.006373         0.524263
 O         1.466031         0.047467         0.997906
 O        -0.462644         1.082023         0.129621
 H        -3.505230        -1.444747        -0.466249
 H        -2.683408        -2.691200         0.451240
 H        -3.733720        -1.697800         1.257115
 H        -1.895616        -0.317218         1.898802
 H        -2.485824         1.247084        -0.417900
 H        -2.048560        -1.155080        -1.642183
 H        -0.650292        -0.145452        -2.023434
 H        -0.886487        -3.327111         0.031027
 H         0.727371        -2.760453        -0.495006
 H         0.271979        -2.897856         1.268284
