19
Iteration:   900
 C        -3.140982        -1.415007         0.786903
 C        -1.857846        -0.741968         0.973227
 C        -1.777352         0.404444        -0.053408
 C        -1.368671        -0.592517        -1.217467
 C        -0.524292        -1.252593         0.072796
 C         0.129560        -2.628137         0.141291
 C         0.370797        -0.011549         0.302465
 O         1.525156         0.035674         0.652256
 O        -0.499224         1.083372         0.213047
 H        -3.492642        -2.011640         1.640564
 H        -3.887382        -0.758258         0.336318
 H        -3.147095        -2.279732         0.069812
 H        -1.598994        -0.423772         1.997925
 H        -2.521681         1.176869        -0.128012
 H        -2.195050        -1.211720        -1.609142
 H        -0.823760        -0.164926        -2.057412
 H        -0.142539        -2.973506         1.158814
 H        -0.153769        -3.443063        -0.556851
 H         1.273502        -2.629263         0.251575
