19
Iteration:    20
 C        -2.743081        -1.577605         1.658597
 C        -1.702277        -0.619375         1.057781
 C        -1.784095         0.590021        -0.017836
 C        -1.739140        -0.572257        -1.148807
 C        -0.696751        -1.208340        -0.022059
 C        -0.112827        -2.662139        -0.087276
 C         0.368437        -0.073420         0.101028
 O         1.559502        -0.055783        -0.014953
 O        -0.359671         1.108958         0.300266
 H        -3.083740        -1.346124         2.648402
 H        -3.692272        -1.781899         1.103471
 H        -2.333582        -2.577201         1.758409
 H        -1.208358        -0.160804         1.965587
 H        -2.449102         1.450658        -0.052850
 H        -2.647070        -1.142019        -1.025657
 H        -1.299557        -0.403010        -2.134041
 H         0.992597        -2.713983         0.346769
 H        -0.776402        -3.397941         0.406278
 H        -0.081124        -2.962060        -1.088875
