19
Iteration:  2703
 C        -3.013070        -1.722698        -0.026039
 C        -2.109755        -0.643591         0.382440
 C        -1.605197         0.351566        -0.557031
 C        -0.673393        -0.510259        -1.359503
 C        -0.503741        -1.251694         0.158828
 C        -0.049180        -2.510026         0.775087
 C         0.229460         0.018038         0.756144
 O         1.284694         0.061416         1.384307
 O        -0.674599         1.087957         0.244754
 H        -3.176961        -2.002823        -1.041753
 H        -2.766655        -2.658906         0.588210
 H        -3.991912        -1.492742         0.387959
 H        -2.301282        -0.390257         1.425153
 H        -2.385935         1.093644        -1.032419
 H        -1.217652        -1.000815        -2.231994
 H         0.258983         0.047360        -1.656450
 H        -0.680063        -3.424628         0.555143
 H         0.920351        -2.734851         0.571816
 H        -0.037194        -2.262993         1.851604
