19
Iteration:   891charge 0 multiplicity 1
 C        -3.189939        -1.494882         0.800214
 C        -1.787969        -0.718926         0.960738
 C        -1.788185         0.424394        -0.129886
 C        -1.319370        -0.543489        -1.156838
 C        -0.573540        -1.249859         0.108509
 C         0.096744        -2.613351         0.170036
 C         0.332618        -0.061403         0.351664
 O         1.508241         0.084345         0.602016
 O        -0.444587         1.014654         0.203483
 H        -3.608856        -1.913060         1.745056
 H        -3.926516        -0.764201         0.565715
 H        -2.997034        -2.165676        -0.040159
 H        -1.454382        -0.499835         1.984604
 H        -2.543328         1.134512        -0.346804
 H        -2.117498        -1.173089        -1.642546
 H        -0.757247         0.019527        -1.903097
 H        -0.270768        -3.218635         1.016739
 H        -0.000825        -3.276936        -0.769917
 H         1.113413        -2.302853         0.268027
