19
Iteration:  1800
 C        -3.261011        -1.562986         0.069865
 C        -2.017834        -0.726752         0.443418
 C        -1.596337         0.404903        -0.527589
 C        -0.711899        -0.626520        -1.360011
 C        -0.470321        -1.193723         0.165331
 C         0.066252        -2.509237         0.748787
 C         0.209548        -0.009905         0.664163
 O         1.292837         0.060935         1.186734
 O        -0.605941         1.062432         0.401737
 H        -3.079675        -2.653358         0.276784
 H        -4.174015        -1.237179         0.711143
 H        -3.689158        -1.484308        -0.991674
 H        -2.056894        -0.592967         1.538005
 H        -2.336387         1.205056        -0.917075
 H        -1.356569        -1.322092        -1.874479
 H         0.121581        -0.292461        -2.081206
 H        -0.049398        -2.602226         1.842386
 H        -0.403236        -3.289089         0.197661
 H         1.102262        -2.675164         0.477742
