19
Iteration:  3915
 C        -3.024859        -1.818404        -0.074050
 C        -1.966940        -0.879951         0.603031
 C        -1.734212         0.521543        -0.101690
 C        -0.952518        -0.311349        -1.138033
 C        -0.536172        -1.161847         0.060764
 C         0.190697        -2.516100         0.220513
 C         0.221636        -0.019138         0.674727
 O         1.357244         0.040238         0.915254
 O        -0.657730         1.074284         0.729351
 H        -2.910615        -2.933730        -0.040564
 H        -4.014648        -1.652170         0.378897
 H        -3.302912        -1.669867        -1.154290
 H        -2.081755        -0.963128         1.679196
 H        -2.478959         1.301740        -0.358176
 H        -1.670140        -0.918746        -1.712875
 H        -0.316540         0.097540        -1.905741
 H         1.131279        -2.521767        -0.196046
 H         0.232353        -2.722304         1.268185
 H        -0.462374        -3.285387        -0.162426
