19
Iteration:  1646charge 0 multiplicity 1
 C        -3.250910        -1.528046         0.296136
 C        -2.028072        -0.628998         0.594902
 C        -1.635841         0.419490        -0.446713
 C        -0.895243        -0.735171        -1.292338
 C        -0.542137        -1.215494         0.154749
 C         0.210698        -2.677889         0.285837
 C         0.230466        -0.032984         0.742484
 O         1.247157         0.102192         1.379136
 O        -0.471567         1.183477         0.154567
 H        -3.794975        -1.302278        -0.594808
 H        -3.048597        -2.636088         0.094517
 H        -3.829778        -1.636683         1.193417
 H        -2.219782        -0.191157         1.604857
 H        -2.357720         1.169564        -0.829839
 H        -1.781895        -1.320116        -1.762577
 H        -0.023866        -0.741162        -1.946832
 H         0.334626        -2.946756        -0.739747
 H         1.282220        -2.499323         0.582063
 H        -0.347197        -3.332315         0.885522
