19
Iteration:  2931charge 0 multiplicity 1
 C        -3.171116        -1.636099        -0.090220
 C        -2.068868        -0.800277         0.489606
 C        -1.529111         0.332587        -0.462577
 C        -0.743658        -0.651806        -1.260286
 C        -0.561919        -1.196664         0.318059
 C         0.062483        -2.527707         0.489101
 C         0.238036         0.080452         0.796121
 O         1.277521         0.218648         1.348279
 O        -0.626376         1.074241         0.285957
 H        -4.111861        -1.115322        -0.022763
 H        -3.030950        -1.796548        -1.210964
 H        -3.262050        -2.597734         0.394130
 H        -2.334884        -0.515631         1.505427
 H        -2.373828         0.986320        -0.922422
 H        -1.183391        -1.505876        -1.793074
 H         0.060674        -0.281833        -1.874047
 H        -0.567898        -3.409979         0.049691
 H         1.022365        -2.514389        -0.136909
 H         0.339066        -2.794862         1.560078
