19
Iteration:  4554charge 0 multiplicity 1
 C        -3.010595        -1.915883         0.289899
 C        -1.971975        -0.786588         0.628515
 C        -1.672481         0.554406        -0.261258
 C        -1.028783        -0.333289        -1.348807
 C        -0.490859        -1.112217        -0.065969
 C         0.214374        -2.402006        -0.002594
 C         0.249763        -0.070106         0.682193
 O         1.167421        -0.125902         1.494392
 O        -0.603730         1.137695         0.393231
 H        -2.725056        -2.927072         0.528215
 H        -3.895135        -1.808584         0.864508
 H        -3.232011        -1.968364        -0.773248
 H        -1.845379        -0.748800         1.664614
 H        -2.463909         1.249315        -0.600299
 H        -1.663195        -0.868515        -2.124395
 H        -0.229749         0.230734        -1.926442
 H         0.043907        -3.222886        -0.760913
 H         1.317194        -2.111923        -0.030507
 H        -0.119051        -2.885774         0.949398
