19
Iteration:  2736
 C        -3.121747        -1.771182        -0.180209
 C        -2.103230        -0.793985         0.417026
 C        -1.470534         0.433549        -0.481485
 C        -0.657713        -0.719113        -1.213725
 C        -0.585976        -1.134296         0.274429
 C         0.016139        -2.422128         0.715271
 C         0.150909         0.047943         0.784894
 O         1.292532         0.089708         1.186155
 O        -0.622656         1.161295         0.357507
 H        -2.846512        -2.409624        -1.006469
 H        -3.394198        -2.470751         0.703697
 H        -4.040104        -1.213602        -0.393594
 H        -2.509095        -0.494810         1.402181
 H        -2.225161         1.126527        -1.035561
 H        -1.470943        -1.159104        -1.841388
 H         0.236677        -0.417087        -1.854840
 H        -0.606682        -3.326463         0.460645
 H         0.950201        -2.547239         0.315876
 H         0.141902        -2.449090         1.802630
