19
Iteration:  4570
 C        -2.927076        -1.803000         0.181895
 C        -1.883279        -0.827041         0.548088
 C        -1.755940         0.470712        -0.258375
 C        -1.042209        -0.330848        -1.298835
 C        -0.494798        -1.131915        -0.024861
 C         0.200801        -2.543656         0.045101
 C         0.167361         0.016400         0.731092
 O         1.165567        -0.039602         1.375675
 O        -0.562562         1.113849         0.490699
 H        -2.582553        -2.779021         0.667437
 H        -3.903965        -1.585775         0.751983
 H        -3.076343        -1.861129        -0.917858
 H        -1.925519        -0.515053         1.675426
 H        -2.494600         1.271832        -0.302159
 H        -1.764380        -0.968439        -1.770708
 H        -0.455844         0.076713        -2.109704
 H        -0.081046        -2.986889        -0.890010
 H         1.267509        -2.517047         0.125994
 H        -0.126746        -3.191475         0.872489
