19
Iteration:  1771
 C        -3.182151        -1.654991         0.055012
 C        -2.101927        -0.680321         0.586618
 C        -1.620507         0.426461        -0.480272
 C        -0.703170        -0.644649        -1.217999
 C        -0.593658        -1.215891         0.260152
 C        -0.072261        -2.625953         0.544774
 C         0.270009         0.044278         0.687137
 O         1.352139         0.145379         1.215129
 O        -0.515732         1.124542         0.226446
 H        -3.209052        -2.454349         0.735043
 H        -4.159856        -1.251419         0.003025
 H        -2.988184        -2.131888        -0.909546
 H        -2.180581        -0.581809         1.663167
 H        -2.359011         1.086345        -0.937856
 H        -1.265910        -1.255634        -1.894775
 H         0.213824        -0.259487        -1.661589
 H        -0.626781        -3.162548         1.362005
 H        -0.098317        -3.174438        -0.401526
 H         1.025252        -2.573352         0.795047
