19
Iteration:   975
 C        -2.986052        -1.722064         0.983978
 C        -1.879725        -0.688537         0.806121
 C        -1.692246         0.454845        -0.269414
 C        -1.159550        -0.577857        -1.268569
 C        -0.606068        -1.146088         0.049788
 C        -0.091457        -2.581139         0.032269
 C         0.307545         0.048109         0.472911
 O         1.459626        -0.022437         0.792017
 O        -0.460646         1.154734         0.250518
 H        -3.221772        -1.715747         2.074123
 H        -3.934738        -1.251384         0.579712
 H        -2.954988        -2.788612         0.637279
 H        -1.653747        -0.138715         1.769058
 H        -2.543305         1.072408        -0.569927
 H        -2.074883        -1.055315        -1.657865
 H        -0.490547        -0.296193        -2.069017
 H         0.949464        -2.785101        -0.308309
 H        -0.328818        -3.095854         0.935706
 H        -0.737907        -3.167926        -0.732420
