19
Iteration:  2593charge 0 multiplicity 1
 C        -3.238705        -1.553837         0.199984
 C        -1.984143        -0.686415         0.367502
 C        -1.560924         0.349103        -0.685446
 C        -0.750258        -0.698409        -1.351789
 C        -0.387824        -1.208734         0.049198
 C         0.224870        -2.473224         0.535453
 C         0.137775         0.012295         0.738101
 O         0.982133         0.005658         1.616090
 O        -0.508895         1.105546         0.225387
 H        -3.138717        -2.414351        -0.425347
 H        -3.374609        -1.965302         1.195396
 H        -4.060750        -0.950590        -0.057588
 H        -1.981965        -0.219160         1.360035
 H        -2.232692         1.124402        -1.044958
 H        -1.436604        -1.414881        -1.935043
 H        -0.000686        -0.188253        -1.897992
 H        -0.410417        -3.365524         0.319129
 H         1.228229        -2.688420         0.215752
 H         0.228138        -2.251557         1.615965
