19
Iteration:  3901charge 0 multiplicity 1
 C        -3.109925        -1.848181        -0.009080
 C        -2.038164        -0.957478         0.529333
 C        -1.731937         0.464877        -0.094895
 C        -1.036135        -0.240150        -1.238133
 C        -0.538130        -1.147607         0.047467
 C         0.162233        -2.443077         0.237014
 C         0.235003        -0.014392         0.752398
 O         1.390095        -0.018236         1.000218
 O        -0.567651         1.084478         0.633569
 H        -2.460886        -2.743427        -0.005694
 H        -3.914188        -2.022203         0.679971
 H        -3.332131        -1.545230        -1.011463
 H        -2.121579        -0.849607         1.606341
 H        -2.434533         1.257482        -0.262604
 H        -1.738019        -0.767799        -2.044030
 H        -0.212595         0.347372        -1.683984
 H         1.155120        -2.312604        -0.116093
 H         0.350753        -2.519103         1.313842
 H        -0.082705        -3.337255        -0.256271
