19
Iteration:  3385charge 0 multiplicity 1
 C        -3.075806        -1.682664         0.140870
 C        -1.953417        -0.744394         0.560086
 C        -1.760339         0.401243        -0.382772
 C        -1.029101        -0.485684        -1.327874
 C        -0.513102        -1.152711         0.060431
 C         0.222632        -2.497928         0.273630
 C         0.222524        -0.030560         0.675717
 O         1.229198        -0.011094         1.355007
 O        -0.512211         1.102216         0.424782
 H        -3.740504        -1.344870        -0.623694
 H        -2.609416        -2.600779        -0.224373
 H        -3.779952        -1.827112         0.956711
 H        -2.003521        -0.515093         1.613266
 H        -2.473057         1.245921        -0.495201
 H        -1.534596        -1.246328        -1.915842
 H        -0.339487         0.035892        -2.048794
 H         1.303391        -2.262636         0.565547
 H        -0.224462        -2.988932         1.288708
 H         0.253772        -3.303638        -0.544486
