19
Iteration:  2771
 C        -3.175345        -1.590653        -0.157930
 C        -2.099323        -0.751938         0.552588
 C        -1.565399         0.314587        -0.436953
 C        -0.679395        -0.721091        -1.213061
 C        -0.498722        -1.233790         0.325380
 C         0.051517        -2.604871         0.570649
 C         0.218706         0.024605         0.738641
 O         1.219081         0.344643         1.326057
 O        -0.581670         1.040276         0.228300
 H        -2.722261        -2.467267        -0.613916
 H        -3.938399        -1.942230         0.559060
 H        -3.677216        -1.052976        -0.930443
 H        -2.531980        -0.237650         1.485561
 H        -2.232100         1.024866        -1.007435
 H        -1.200891        -1.369653        -1.903646
 H         0.256184        -0.194466        -1.757750
 H        -0.633301        -3.243187        -0.040497
 H         1.125030        -2.718240         0.183333
 H         0.018054        -2.855992         1.657060
