19
Iteration:  3064charge 0 multiplicity 1
 C        -3.323211        -1.679692         0.309241
 C        -1.994701        -0.782899         0.505584
 C        -1.619158         0.365208        -0.571139
 C        -0.666316        -0.539892        -1.307295
 C        -0.462956        -1.210283         0.111480
 C         0.206826        -2.587952         0.178106
 C         0.185503         0.057006         0.737829
 O         1.071863         0.107601         1.553444
 O        -0.536522         1.141953         0.280109
 H        -3.152367        -2.632192        -0.143656
 H        -3.729869        -1.734788         1.300814
 H        -4.017890        -1.201374        -0.298022
 H        -1.982943        -0.274721         1.448616
 H        -2.164528         1.054051        -1.246014
 H        -1.115867        -1.192005        -1.963719
 H         0.224641        -0.147057        -1.812094
 H        -0.279768        -3.547990        -0.181712
 H         1.207515        -2.506430        -0.218844
 H         0.213249        -2.925844         1.265400
