19
Iteration:  3778charge 0 multiplicity 1
 C        -3.028899        -1.781873         0.331552
 C        -1.980254        -0.713678         0.585884
 C        -1.678797         0.475773        -0.269041
 C        -0.984852        -0.471290        -1.359400
 C        -0.422596        -1.099188        -0.135207
 C         0.257423        -2.443191        -0.035615
 C         0.167560        -0.028912         0.691947
 O         1.106248        -0.093289         1.437834
 O        -0.591518         1.083781         0.531150
 H        -3.014727        -2.077054        -0.710135
 H        -2.763428        -2.684094         0.943906
 H        -3.913056        -1.321318         0.718881
 H        -1.861488        -0.446939         1.652874
 H        -2.434990         1.276905        -0.414685
 H        -1.600760        -1.084641        -2.001967
 H        -0.330791        -0.076878        -2.218344
 H         0.949768        -2.527509        -0.849438
 H         0.792704        -2.509898         0.882123
 H        -0.336782        -3.311942        -0.170854
