19
Iteration:   942charge 0 multiplicity 1
 C        -3.087552        -1.618669         0.860241
 C        -1.897016        -0.660821         0.925307
 C        -1.714984         0.463113        -0.135609
 C        -1.315974        -0.563778        -1.250635
 C        -0.639939        -1.202079         0.040271
 C         0.060942        -2.538229         0.102577
 C         0.338280        -0.067587         0.405865
 O         1.498909         0.026854         0.757737
 O        -0.432632         1.036706         0.167452
 H        -3.332943        -1.798248         1.919416
 H        -3.939024        -1.084024         0.334317
 H        -2.795345        -2.600842         0.403751
 H        -1.632758        -0.206425         1.923039
 H        -2.535138         1.209942        -0.244055
 H        -2.127887        -1.112728        -1.747902
 H        -0.592727        -0.195596        -1.990686
 H         0.941686        -2.531119         0.778715
 H        -0.567775        -3.316941         0.480185
 H         0.294257        -2.789486        -1.015119
