19
Iteration:  4373
 C        -3.098011        -1.797238         0.008360
 C        -1.966944        -0.913531         0.616420
 C        -1.801342         0.439511        -0.238271
 C        -0.932213        -0.389924        -1.234462
 C        -0.548822        -1.200341         0.077655
 C         0.164972        -2.592781         0.055259
 C         0.217507         0.059524         0.737062
 O         1.408063         0.176939         1.201386
 O        -0.614243         1.083497         0.638047
 H        -2.969233        -2.890205         0.284379
 H        -4.023187        -1.365532         0.422685
 H        -3.069210        -1.810411        -1.131722
 H        -1.918632        -0.696239         1.687805
 H        -2.541383         1.233455        -0.203346
 H        -1.583437        -0.862122        -1.937307
 H        -0.135426         0.202189        -1.635511
 H        -0.269069        -3.036325        -0.864670
 H         1.237698        -2.624894        -0.182352
 H        -0.163196        -3.237078         0.923778
