19
Iteration:  2738
 C        -3.133141        -1.764586        -0.184474
 C        -2.103390        -0.802075         0.417509
 C        -1.491825         0.440175        -0.490826
 C        -0.667334        -0.729469        -1.193838
 C        -0.598842        -1.127980         0.274576
 C         0.021690        -2.443453         0.703451
 C         0.172449         0.043707         0.802488
 O         1.312561         0.102344         1.193438
 O        -0.626784         1.163329         0.348001
 H        -2.828794        -2.411668        -0.983160
 H        -3.383805        -2.396778         0.670614
 H        -4.005038        -1.220356        -0.447717
 H        -2.581395        -0.449211         1.388429
 H        -2.230512         1.078385        -1.040208
 H        -1.419558        -1.121069        -1.846083
 H         0.202056        -0.413423        -1.876920
 H        -0.602077        -3.365272         0.479113
 H         1.046993        -2.541835         0.279415
 H         0.122342        -2.461293         1.813812
