19
Iteration:  4363
 C        -3.086194        -1.776727         0.047507
 C        -1.916028        -0.889188         0.646988
 C        -1.760769         0.461712        -0.195867
 C        -0.950004        -0.399475        -1.154052
 C        -0.470098        -1.191438         0.060551
 C         0.119762        -2.578986        -0.012599
 C         0.313816         0.035193         0.692376
 O         1.312620         0.165895         1.252792
 O        -0.669550         1.090990         0.584704
 H        -3.034221        -2.901288         0.199828
 H        -4.111622        -1.574481         0.444957
 H        -3.188997        -1.552512        -1.056667
 H        -1.956206        -0.794994         1.738948
 H        -2.439845         1.108303        -0.739699
 H        -1.559659        -1.040898        -1.792018
 H        -0.202522         0.005884        -1.874720
 H        -0.173604        -3.085795        -1.024375
 H         1.253884        -2.452809         0.020217
 H        -0.195375        -3.407959         0.728721
