19
Iteration:  2624charge 0 multiplicity 1
 C        -3.299410        -1.502157         0.234013
 C        -1.977876        -0.727036         0.458241
 C        -1.482685         0.344180        -0.584831
 C        -0.678684        -0.771541        -1.317568
 C        -0.506304        -1.290522         0.093548
 C         0.207108        -2.542500         0.364722
 C         0.157647         0.018539         0.747746
 O         0.940944         0.201856         1.682768
 O        -0.459680         1.097990         0.100419
 H        -3.423933        -1.955130        -0.789928
 H        -3.237840        -2.349358         0.954056
 H        -4.240676        -0.904722         0.457974
 H        -2.043593        -0.366671         1.466630
 H        -2.252916         0.960598        -0.953656
 H        -1.210192        -1.394505        -2.108952
 H         0.175192        -0.360520        -1.817670
 H        -0.153859        -3.346707        -0.181706
 H         1.249030        -2.321129         0.147425
 H         0.081512        -2.765889         1.393985
