19
Iteration:  3323
 C        -3.057813        -1.711434         0.368553
 C        -1.929520        -0.697392         0.531976
 C        -1.592368         0.447236        -0.473711
 C        -0.848632        -0.551167        -1.427966
 C        -0.456332        -1.175393         0.067658
 C         0.100575        -2.554827         0.019527
 C         0.199700        -0.032830         0.794388
 O         1.077459         0.116167         1.597500
 O        -0.604067         1.052350         0.308087
 H        -3.917581        -1.210882         0.789340
 H        -3.284214        -1.969511        -0.731991
 H        -2.851840        -2.650617         0.852163
 H        -1.826157        -0.428402         1.597630
 H        -2.380190         1.150999        -0.742064
 H        -1.366597        -1.252504        -1.946512
 H         0.037941        -0.060840        -1.844147
 H         0.806993        -2.749481        -0.755600
 H         0.601470        -2.673944         0.913940
 H        -0.702262        -3.200602        -0.131816
