19
Iteration:  4557charge 0 multiplicity 1
 C        -3.003987        -1.887674         0.291347
 C        -1.929120        -0.787371         0.588390
 C        -1.669037         0.560949        -0.249183
 C        -1.060753        -0.331222        -1.348028
 C        -0.460370        -1.126629        -0.035701
 C         0.205537        -2.417843         0.013069
 C         0.209019        -0.091474         0.676872
 O         1.175779        -0.110889         1.478199
 O        -0.612243         1.140355         0.403531
 H        -2.600543        -2.920113         0.451441
 H        -4.001725        -1.808609         0.738620
 H        -3.202967        -1.999200        -0.821422
 H        -1.809461        -0.756146         1.742705
 H        -2.413241         1.234564        -0.678263
 H        -1.678678        -0.936720        -2.010716
 H        -0.314211         0.292453        -1.867104
 H         0.025370        -3.118176        -0.780119
 H         1.294247        -2.169806        -0.007976
 H        -0.130701        -2.975009         0.941084
