19
Iteration:   569
 C        -3.123005        -1.490929         1.055915
 C        -1.730562        -0.653448         1.094186
 C        -1.745374         0.453463        -0.085862
 C        -1.466419        -0.704436        -1.098095
 C        -0.646918        -1.222198         0.082255
 C         0.057489        -2.632578         0.085687
 C         0.333770        -0.034915         0.244081
 O         1.507140         0.086035         0.573269
 O        -0.377514         1.085512        -0.028431
 H        -2.880801        -2.576644         1.017054
 H        -3.869307        -1.239613         1.806664
 H        -3.504152        -1.260995         0.063393
 H        -1.159681        -0.270627         1.975305
 H        -2.419159         1.260406        -0.266389
 H        -2.268484        -1.426873        -1.207985
 H        -0.884435        -0.445503        -1.914623
 H        -0.293906        -3.089252        -0.836055
 H         1.110186        -2.704655         0.150421
 H        -0.351631        -3.230078         0.965604
