19
Iteration:  1193charge 0 multiplicity 1
 C        -3.244151        -1.432347         0.788120
 C        -1.880278        -0.788470         0.757882
 C        -1.664322         0.452420        -0.254786
 C        -1.078226        -0.583050        -1.304460
 C        -0.630150        -1.279216        -0.009983
 C         0.160854        -2.537709         0.134182
 C         0.308527        -0.067800         0.425012
 O         1.365462         0.026998         0.971003
 O        -0.518455         1.076241         0.290602
 H        -3.186240        -2.392933         0.285805
 H        -3.371361        -1.734592         1.816842
 H        -4.120472        -0.811392         0.534526
 H        -1.552977        -0.522028         1.812955
 H        -2.499484         1.070762        -0.567717
 H        -1.828627        -1.180357        -1.918724
 H        -0.279292        -0.384721        -2.018251
 H         1.219940        -2.266771        -0.236511
 H         0.299625        -2.797785         1.152214
 H        -0.211016        -3.462080        -0.449513
