19
Iteration:  1990
 C        -3.215886        -1.475185        -0.073880
 C        -2.016305        -0.834292         0.513034
 C        -1.555708         0.284078        -0.433013
 C        -0.662464        -0.733646        -1.255624
 C        -0.529081        -1.267533         0.264993
 C         0.027090        -2.663587         0.514704
 C         0.211967         0.061329         0.739559
 O         1.127065         0.320272         1.441426
 O        -0.484324         1.138327         0.179319
 H        -3.088759        -1.818200        -1.148843
 H        -3.602095        -2.330755         0.492204
 H        -4.077759        -0.728331        -0.046062
 H        -2.220945        -0.646341         1.564717
 H        -2.280073         0.861476        -0.994451
 H        -1.101807        -1.336335        -2.086216
 H         0.275607        -0.402400        -1.549346
 H        -0.065477        -3.208837        -0.392281
 H         1.056407        -2.696862         0.806368
 H        -0.606834        -3.137045         1.236748
