19
Iteration:  2453
 C        -3.176690        -1.593009        -0.091860
 C        -2.127900        -0.724541         0.467359
 C        -1.579097         0.517736        -0.562577
 C        -0.731658        -0.733835        -1.306208
 C        -0.616668        -1.259677         0.217279
 C         0.169303        -2.504449         0.722901
 C         0.192233         0.011060         0.738727
 O         1.165322         0.066635         1.418692
 O        -0.491538         1.107788         0.206603
 H        -3.078148        -1.846633        -1.149902
 H        -3.147222        -2.593771         0.425912
 H        -4.135786        -1.151939         0.056446
 H        -2.160725        -0.532373         1.571757
 H        -2.217963         1.326808        -0.819907
 H        -1.284548        -1.481669        -1.937459
 H         0.163686        -0.389888        -1.693328
 H         0.212037        -3.239358        -0.146235
 H         1.182137        -2.172685         0.816673
 H        -0.187776        -2.928028         1.689423
