19
Iteration:  1542charge 0 multiplicity 1
 C        -3.209279        -1.752652         0.256726
 C        -2.057661        -0.657711         0.603321
 C        -1.675506         0.438640        -0.393049
 C        -0.921300        -0.603475        -1.218615
 C        -0.544202        -1.109020         0.239275
 C         0.117417        -2.526611         0.400243
 C         0.275187         0.025935         0.616750
 O         1.384508        -0.101591         1.085263
 O        -0.537329         1.201391         0.302741
 H        -3.119347        -2.795562        -0.173838
 H        -3.760838        -1.794408         1.165798
 H        -3.744205        -1.201476        -0.552854
 H        -2.168853        -0.376084         1.638928
 H        -2.294435         1.173373        -0.986482
 H        -1.447838        -1.363367        -1.685090
 H        -0.159271        -0.164835        -1.927642
 H         0.902955        -2.496426         1.166445
 H        -0.588375        -3.231352         0.635032
 H         0.699767        -2.788192        -0.501891
