19
Iteration:  2948charge 0 multiplicity 1
 C        -3.103876        -1.704683        -0.104945
 C        -2.062403        -0.715490         0.437734
 C        -1.621343         0.434802        -0.511057
 C        -0.742197        -0.658163        -1.201942
 C        -0.547040        -1.206932         0.185491
 C         0.134758        -2.526944         0.597484
 C         0.151405         0.011589         0.790033
 O         1.259864         0.134173         1.205656
 O        -0.617005         1.116709         0.454490
 H        -4.026014        -1.106660        -0.386102
 H        -2.843325        -2.319020        -0.939878
 H        -3.468230        -2.436259         0.674863
 H        -2.333615        -0.380964         1.484988
 H        -2.105955         1.189238        -1.040018
 H        -1.402065        -1.266028        -1.927583
 H         0.250013        -0.538372        -1.702431
 H        -0.418573        -3.337943         0.248367
 H         1.111916        -2.415607         0.109996
 H         0.121763        -2.668946         1.652472
