19
Iteration:   567charge 0 multiplicity 1
 C        -3.106841        -1.484537         1.046916
 C        -1.710263        -0.650806         1.088166
 C        -1.723578         0.460443        -0.087735
 C        -1.474133        -0.716559        -1.090916
 C        -0.650041        -1.216197         0.080213
 C         0.039334        -2.614664         0.092285
 C         0.344198        -0.038160         0.248628
 O         1.498452         0.079877         0.575605
 O        -0.396343         1.071718        -0.023470
 H        -2.852356        -2.578842         1.029875
 H        -3.795721        -1.268066         1.813729
 H        -3.529074        -1.267304         0.069654
 H        -1.235089        -0.280711         2.008200
 H        -2.409365         1.288111        -0.289289
 H        -2.264205        -1.473412        -1.229599
 H        -0.945010        -0.464782        -1.969868
 H        -0.303452        -3.070831        -0.899584
 H         1.149483        -2.641390         0.226001
 H        -0.372795        -3.202574         0.885701
