19
Iteration:  4661
 C        -3.073030        -1.764676        -0.046216
 C        -1.969553        -0.871413         0.512756
 C        -1.761279         0.457399        -0.174490
 C        -0.970015        -0.387263        -1.260161
 C        -0.588823        -1.167303         0.047545
 C         0.210229        -2.468473         0.189616
 C         0.249520        -0.052886         0.786722
 O         1.424911         0.083284         1.076855
 O        -0.674583         1.063060         0.715700
 H        -3.220143        -2.645403         0.610579
 H        -4.123741        -1.245010        -0.054183
 H        -2.978617        -2.073351        -1.134857
 H        -2.185893        -0.865299         1.660431
 H        -2.605449         1.156058        -0.255680
 H        -1.386658        -1.185324        -1.931450
 H        -0.211239         0.288250        -1.673031
 H        -0.482563        -3.214553        -0.235986
 H         1.112511        -2.462297        -0.422016
 H         0.599443        -2.699416         1.141884
