19
Iteration:  4109
 C        -3.135825        -1.817208         0.180918
 C        -1.967112        -0.935329         0.586756
 C        -1.762057         0.474974        -0.179103
 C        -0.946082        -0.418026        -1.278512
 C        -0.515333        -1.146100         0.044847
 C         0.107614        -2.556834        -0.048397
 C         0.292546         0.050279         0.698513
 O         1.365058         0.204403         1.273085
 O        -0.628038         1.030917         0.565679
 H        -2.932555        -2.856000         0.371706
 H        -3.975133        -1.668297         0.756611
 H        -3.378484        -1.667002        -0.876071
 H        -1.853020        -0.769572         1.647856
 H        -2.404596         1.392679        -0.319558
 H        -1.151479        -1.097193        -2.133779
 H        -0.115463         0.174859        -1.562534
 H         0.883635        -2.666235        -0.824904
 H         0.586907        -2.782506         0.969361
 H        -0.653288        -3.303718        -0.451738
