19
Iteration:  2046charge 0 multiplicity 1
 C        -3.159293        -1.845438        -0.000608
 C        -2.079485        -0.684462         0.356146
 C        -1.479942         0.486113        -0.583295
 C        -0.636922        -0.636308        -1.291431
 C        -0.586159        -1.112244         0.211532
 C        -0.079789        -2.440224         0.632167
 C         0.173653         0.009347         0.786288
 O         1.183223         0.001448         1.411121
 O        -0.508637         1.152273         0.296753
 H        -2.867627        -2.345218        -0.986775
 H        -3.162148        -2.577346         0.850598
 H        -4.159441        -1.393880        -0.274302
 H        -2.236840        -0.373106         1.392038
 H        -2.033053         1.261266        -1.227130
 H        -1.366784        -1.218756        -1.833852
 H         0.317310        -0.566062        -1.793674
 H        -0.609333        -3.322067         0.478208
 H         0.940494        -2.493373         0.144585
 H         0.241785        -2.409022         1.644475
