19
Iteration:  3850
 C        -3.037023        -1.749451         0.225404
 C        -1.824603        -0.868071         0.636763
 C        -1.705915         0.455183        -0.229472
 C        -0.977679        -0.437080        -1.366085
 C        -0.521735        -1.170545        -0.043940
 C         0.166150        -2.556129        -0.159378
 C         0.172257        -0.003309         0.800400
 O         1.240884         0.110400         1.418223
 O        -0.625222         1.128304         0.554211
 H        -2.890534        -2.802979        -0.170438
 H        -3.475538        -1.895937         1.228386
 H        -3.838461        -1.169958        -0.353314
 H        -1.807129        -0.683212         1.730838
 H        -2.539508         1.154478        -0.386590
 H        -1.701021        -1.026389        -1.968535
 H        -0.298529        -0.222773        -2.155875
 H         1.227762        -2.511389        -0.575439
 H         0.202048        -3.161041         0.772428
 H        -0.302032        -3.202045        -0.982233
