19
Iteration:  3335charge 0 multiplicity 1
 C        -3.048374        -1.674887         0.321131
 C        -1.923142        -0.766359         0.546931
 C        -1.681052         0.402208        -0.413750
 C        -0.886970        -0.493128        -1.290377
 C        -0.478258        -1.184642        -0.022623
 C         0.159335        -2.586908         0.076674
 C         0.215729         0.001488         0.749145
 O         1.063592         0.062972         1.609914
 O        -0.525244         1.116351         0.238188
 H        -4.060779        -1.301183         0.568215
 H        -3.075100        -2.099901        -0.733138
 H        -2.965762        -2.454235         1.074450
 H        -2.070126        -0.305911         1.554936
 H        -2.339889         1.151479        -0.792105
 H        -1.535465        -1.017472        -1.963192
 H        -0.152770        -0.112133        -2.014007
 H         1.010315        -2.568888        -0.574883
 H         0.457121        -2.829505         1.007481
 H        -0.485863        -3.364721        -0.247530
