19
Iteration:  3869charge 0 multiplicity 1
 C        -3.081403        -1.795647         0.202545
 C        -1.952690        -0.869656         0.565466
 C        -1.715555         0.449110        -0.183420
 C        -1.006734        -0.341593        -1.224981
 C        -0.435909        -1.124157        -0.021512
 C         0.186484        -2.475469         0.009299
 C         0.229750         0.008594         0.655517
 O         1.287468        -0.014103         1.268821
 O        -0.634514         1.081515         0.573468
 H        -2.618634        -2.685135        -0.287174
 H        -3.799646        -2.199910         0.904392
 H        -3.674898        -1.442055        -0.648781
 H        -2.021335        -0.767517         1.631581
 H        -2.431614         1.222949        -0.401567
 H        -1.623257        -0.915935        -1.982811
 H        -0.345577         0.239809        -1.875081
 H         1.164840        -2.357035        -0.220978
 H         0.139775        -2.827712         1.027958
 H        -0.238455        -3.221573        -0.601421
