19
Iteration:  4801charge 0 multiplicity 1
 C        -2.992354        -1.732122         0.245131
 C        -1.833595        -0.911835         0.570744
 C        -1.740938         0.516909        -0.282128
 C        -1.090214        -0.362461        -1.356466
 C        -0.506015        -1.148738        -0.118272
 C         0.251755        -2.513425        -0.002397
 C         0.212452        -0.023435         0.761694
 O         1.179777        -0.046557         1.474396
 O        -0.609012         1.123856         0.498459
 H        -2.973225        -2.583050         0.951771
 H        -4.047909        -1.303685         0.364983
 H        -3.044430        -2.184070        -0.761784
 H        -1.776400        -0.646182         1.667253
 H        -2.601349         1.179134        -0.459537
 H        -1.833170        -0.962644        -1.881191
 H        -0.357698         0.113225        -1.993784
 H        -0.103734        -3.140789        -0.889797
 H         1.295399        -2.239659        -0.267567
 H         0.379038        -3.030057         0.943050
