19
Iteration:  3073
 C        -3.271608        -1.616053         0.325019
 C        -1.994656        -0.750358         0.444658
 C        -1.602431         0.343178        -0.606202
 C        -0.711784        -0.578262        -1.366553
 C        -0.471818        -1.176342         0.017355
 C         0.282738        -2.603405         0.233318
 C         0.134592         0.034861         0.791092
 O         1.056763         0.069767         1.580627
 O        -0.530669         1.135587         0.307683
 H        -3.088288        -2.613980         0.171116
 H        -3.739601        -1.670445         1.322919
 H        -4.035469        -1.255011        -0.294718
 H        -2.039555        -0.255603         1.462934
 H        -2.542631         0.973070        -0.850834
 H        -1.242086        -1.100613        -2.119815
 H         0.241277        -0.157490        -1.740376
 H        -0.440966        -3.394155        -0.226316
 H         1.243354        -2.661033        -0.281825
 H         0.527621        -2.654276         1.329448
