19
Iteration:  4722charge 0 multiplicity 1
 C        -3.013158        -1.845256         0.232954
 C        -1.957979        -0.786840         0.620653
 C        -1.627309         0.430876        -0.307865
 C        -0.961406        -0.382772        -1.335979
 C        -0.489888        -1.155652        -0.045489
 C         0.158956        -2.502194        -0.127382
 C         0.244155         0.032333         0.711388
 O         1.203642         0.002186         1.483960
 O        -0.661543         1.126349         0.569723
 H        -2.833830        -2.877611         0.554857
 H        -3.926393        -1.445804         0.658121
 H        -3.176564        -1.854580        -0.813916
 H        -1.819182        -0.495953         1.664856
 H        -2.492734         1.004177        -0.676346
 H        -1.588531        -1.024026        -1.964942
 H        -0.212655         0.214273        -1.911566
 H        -0.604218        -3.337126        -0.206248
 H         0.817160        -2.657993        -0.987777
 H         0.605526        -2.726526         0.907777
