19
Iteration:  4525charge 0 multiplicity 1
 C        -3.073517        -1.841084         0.373673
 C        -1.936921        -0.823268         0.489476
 C        -1.719844         0.470222        -0.366653
 C        -0.946940        -0.337307        -1.342016
 C        -0.437687        -1.108693        -0.029405
 C         0.251616        -2.447701        -0.093552
 C         0.143027        -0.063660         0.745004
 O         1.116667        -0.088568         1.496520
 O        -0.545464         1.155528         0.487541
 H        -2.802461        -2.818785         0.871930
 H        -3.833864        -1.551801         1.142828
 H        -3.489755        -2.007774        -0.688594
 H        -1.737228        -0.757414         1.642412
 H        -2.566597         1.117100        -0.614355
 H        -1.432569        -0.922232        -2.078788
 H        -0.317408         0.295827        -1.956245
 H        -0.357150        -3.147105        -0.585220
 H         1.172866        -2.289893        -0.652270
 H         0.548222        -2.833016         0.911660
