19
Iteration:  1583charge 0 multiplicity 1
 C        -3.087569        -1.748080         0.266131
 C        -1.986402        -0.739221         0.592072
 C        -1.606700         0.503108        -0.436103
 C        -0.856087        -0.526736        -1.285609
 C        -0.521303        -1.213946         0.071557
 C        -0.101233        -2.603271         0.466202
 C         0.265855        -0.025203         0.597907
 O         1.336084         0.113926         1.133827
 O        -0.542504         1.126335         0.381442
 H        -2.817316        -2.494033        -0.437238
 H        -3.363433        -2.226809         1.258593
 H        -4.026793        -1.224695        -0.010610
 H        -2.120103        -0.220789         1.562339
 H        -2.380607         1.299962        -0.733990
 H        -1.666323        -1.084758        -1.779888
 H        -0.043970        -0.244839        -1.977390
 H         1.042064        -2.773683         0.298846
 H        -0.337775        -2.871738         1.527817
 H        -0.568004        -3.419215        -0.179795
