19
Iteration:  4178
 C        -3.088385        -1.877588         0.030101
 C        -2.007776        -0.886524         0.554014
 C        -1.820939         0.503219        -0.125092
 C        -0.967995        -0.256336        -1.190657
 C        -0.495847        -1.162993         0.067600
 C         0.200562        -2.503122         0.213723
 C         0.215310        -0.004990         0.700241
 O         1.390276         0.060862         0.907449
 O        -0.599658         1.010490         0.708465
 H        -3.414312        -2.447543         0.886501
 H        -3.975250        -1.340889        -0.256466
 H        -2.713695        -2.412512        -0.800504
 H        -2.291560        -0.846781         1.598028
 H        -2.572102         1.298477        -0.097486
 H        -1.515469        -0.720180        -2.036858
 H        -0.144331         0.270775        -1.810219
 H         1.284686        -2.307782         0.197591
 H        -0.133873        -2.888254         1.166687
 H         0.094225        -3.151081        -0.651299
