19
Iteration:  2339charge 0 multiplicity 1
 C        -3.117756        -1.652175         0.076632
 C        -2.037772        -0.678812         0.445606
 C        -1.541265         0.474193        -0.669318
 C        -0.758028        -0.703408        -1.313348
 C        -0.517213        -1.179922         0.125916
 C         0.104909        -2.547655         0.607624
 C         0.185491         0.034932         0.730193
 O         1.005512         0.078437         1.624178
 O        -0.438993         1.081531         0.152044
 H        -3.030245        -2.049885        -0.903618
 H        -3.132240        -2.510524         0.645140
 H        -4.032166        -1.070898         0.114625
 H        -2.297163        -0.287820         1.451447
 H        -2.257103         1.275065        -1.106700
 H        -1.426056        -1.366752        -1.796208
 H         0.181355        -0.346110        -1.877586
 H        -0.604884        -3.372198         0.636173
 H         0.861423        -2.990914        -0.190778
 H         0.535167        -2.463641         1.617670
