19
Iteration:  3618
 C        -2.966142        -1.801115         0.168863
 C        -1.893410        -0.792950         0.574070
 C        -1.746934         0.561734        -0.243240
 C        -1.033183        -0.506924        -1.378169
 C        -0.519693        -1.135422        -0.062304
 C         0.167530        -2.506524         0.159060
 C         0.215676        -0.021173         0.702109
 O         1.203711        -0.043826         1.373692
 O        -0.561103         1.140460         0.491460
 H        -3.859271        -1.739580         0.799334
 H        -3.559425        -1.631757        -0.724403
 H        -2.552431        -2.780268         0.298804
 H        -1.922593        -0.531690         1.642103
 H        -2.434020         1.378282        -0.505280
 H        -1.752155        -1.130880        -1.945293
 H        -0.386766         0.083351        -1.972078
 H         1.255815        -2.451816        -0.061270
 H         0.167455        -2.784517         1.292032
 H        -0.239969        -3.190889        -0.657393
