19
Iteration:  1852
 C        -3.166715        -1.627011         0.002738
 C        -2.061908        -0.657886         0.588965
 C        -1.587573         0.323852        -0.479450
 C        -0.828830        -0.718286        -1.172253
 C        -0.528755        -1.172298         0.261141
 C         0.009135        -2.536227         0.431653
 C         0.265789         0.078319         0.724364
 O         1.210548         0.137708         1.497688
 O        -0.442147         1.098843         0.044068
 H        -2.831269        -2.405226        -0.725640
 H        -3.749453        -2.152782         0.801781
 H        -3.823222        -0.964704        -0.505370
 H        -2.374962        -0.365858         1.620259
 H        -2.338461         1.014122        -0.947132
 H        -1.288483        -1.554248        -1.748594
 H         0.077842        -0.447148        -1.774449
 H         1.015391        -2.611037         0.870881
 H        -0.622605        -3.283919         1.076323
 H         0.117192        -2.952953        -0.572698
