19
Iteration:  1349charge 0 multiplicity 1
 C        -3.296316        -1.539138         0.480002
 C        -2.027107        -0.730661         0.697169
 C        -1.656147         0.400587        -0.336880
 C        -0.977869        -0.659438        -1.195155
 C        -0.536501        -1.204351         0.205076
 C         0.113744        -2.538062         0.180541
 C         0.314574        -0.037001         0.599260
 O         1.474970         0.076612         0.945433
 O        -0.564323         1.112809         0.277378
 H        -4.219245        -1.071004         0.871598
 H        -3.367870        -1.827879        -0.539714
 H        -3.317428        -2.478928         1.051223
 H        -1.800053        -0.406531         1.739797
 H        -2.430123         1.112737        -0.673550
 H        -1.687704        -1.358479        -1.554180
 H        -0.166927        -0.359393        -1.920048
 H         0.899503        -2.442712         0.900656
 H        -0.529326        -3.275576         0.786699
 H         0.530410        -2.885454        -0.755734
