19
Iteration:  2102charge 0 multiplicity 1
 C        -3.204125        -1.608144        -0.017695
 C        -1.946107        -0.780224         0.387420
 C        -1.514997         0.333128        -0.541001
 C        -0.700855        -0.739911        -1.321584
 C        -0.419072        -1.202321         0.086540
 C        -0.078605        -2.598954         0.532572
 C         0.203592         0.143830         0.765647
 O         1.047067         0.215952         1.620535
 O        -0.477756         1.107283         0.247981
 H        -3.185985        -2.039431        -1.023750
 H        -3.243286        -2.423410         0.790498
 H        -4.055797        -0.932813         0.171716
 H        -1.955238        -0.554021         1.477274
 H        -2.077623         1.155586        -1.112660
 H        -1.342053        -1.302392        -1.929201
 H         0.193984        -0.355493        -1.870189
 H        -0.908897        -3.239480         0.720678
 H         0.548135        -3.207454        -0.184786
 H         0.524753        -2.496134         1.413074
