19
Iteration:  1350
 C        -3.294186        -1.536385         0.482302
 C        -2.023438        -0.737306         0.695552
 C        -1.658821         0.410543        -0.335947
 C        -0.973798        -0.662766        -1.193532
 C        -0.545259        -1.209260         0.204598
 C         0.113357        -2.539202         0.179884
 C         0.314495        -0.036191         0.599687
 O         1.473592         0.082837         0.949128
 O        -0.556654         1.112432         0.275238
 H        -4.224690        -1.085062         0.872952
 H        -3.379765        -1.806326        -0.580458
 H        -3.307200        -2.494677         1.031393
 H        -1.800665        -0.414405         1.749588
 H        -2.442357         1.089593        -0.673961
 H        -1.696260        -1.375670        -1.526461
 H        -0.198211        -0.374354        -1.932123
 H         0.912424        -2.435418         0.880894
 H        -0.515455        -3.264806         0.791374
 H         0.487732        -2.895105        -0.761314
