19
Iteration:  1647
 C        -3.255761        -1.531648         0.301262
 C        -2.031008        -0.621706         0.582753
 C        -1.637406         0.417125        -0.445521
 C        -0.894112        -0.737070        -1.297157
 C        -0.537337        -1.212163         0.154938
 C         0.219769        -2.665180         0.284251
 C         0.228606        -0.032754         0.745505
 O         1.250799         0.092190         1.385110
 O        -0.474566         1.182842         0.153388
 H        -3.793638        -1.281936        -0.543829
 H        -3.063818        -2.620624         0.072110
 H        -3.833145        -1.644053         1.196207
 H        -2.205342        -0.178281         1.593407
 H        -2.404403         1.160482        -0.846139
 H        -1.772274        -1.310492        -1.721642
 H        -0.015617        -0.782120        -1.953788
 H         0.316146        -2.971980        -0.774376
 H         1.278796        -2.497240         0.578516
 H        -0.349047        -3.328249         0.917519
