19
Iteration:   934
 C        -3.069823        -1.551499         0.845359
 C        -1.835635        -0.778324         0.905949
 C        -1.728436         0.416715        -0.188841
 C        -1.369778        -0.556954        -1.220728
 C        -0.618148        -1.183384         0.070341
 C         0.058109        -2.525522         0.096023
 C         0.336351        -0.013865         0.370931
 O         1.476687         0.014644         0.743150
 O        -0.406222         1.061166         0.216513
 H        -3.540959        -1.745330         1.842322
 H        -3.849233        -0.994126         0.353986
 H        -2.961470        -2.491046         0.257277
 H        -1.751060        -0.461997         1.939495
 H        -2.318128         1.284810        -0.283064
 H        -2.201169        -1.284208        -1.412188
 H        -0.798185        -0.341747        -2.105726
 H         0.782090        -2.405575         0.914401
 H        -0.700313        -3.318912         0.394011
 H         0.640125        -2.804786        -0.784088
