19
Iteration:  2558charge 0 multiplicity 1
 C        -3.071487        -1.769642         0.031553
 C        -2.014471        -0.691428         0.449832
 C        -1.526962         0.426773        -0.579665
 C        -0.778287        -0.660717        -1.217161
 C        -0.560108        -1.175695         0.228603
 C        -0.029760        -2.576342         0.541344
 C         0.153659         0.079549         0.752984
 O         1.098610         0.121381         1.461516
 O        -0.416530         1.165820         0.187017
 H        -2.730686        -2.445271        -0.785363
 H        -3.504185        -2.301528         0.873466
 H        -4.013561        -1.346276        -0.425097
 H        -2.167191        -0.391915         1.449629
 H        -2.060525         1.111158        -1.170558
 H        -1.330754        -1.311155        -1.929364
 H         0.084184        -0.385060        -1.821059
 H        -0.766607        -3.291999         0.501148
 H         0.877754        -2.820519        -0.053787
 H         0.312464        -2.654474         1.544913
