19
Iteration:   215charge 0 multiplicity 1
 C        -2.959508        -1.543089         1.287691
 C        -1.649726        -0.640379         1.145561
 C        -1.755184         0.436088         0.187305
 C        -1.598710        -0.568091        -0.927429
 C        -0.521048        -1.177052         0.074984
 C        -0.131566        -2.631474        -0.079780
 C         0.369086        -0.004189         0.072628
 O         1.565773        -0.000722         0.261428
 O        -0.417293         1.040557        -0.102534
 H        -2.855542        -2.593838         1.039446
 H        -3.364122        -1.596237         2.370841
 H        -3.873372        -1.251864         0.755449
 H        -1.306832        -0.285659         2.139161
 H        -2.447314         1.233795         0.247148
 H        -2.428175        -1.239787        -1.188462
 H        -1.285841        -0.039115        -1.906132
 H         0.324702        -2.994223         0.907083
 H        -1.059110        -3.215030        -0.252767
 H         0.588847        -2.780250        -0.793568
