19
Iteration:  4955charge 0 multiplicity 1
 C        -3.063381        -1.876996         0.244263
 C        -1.994782        -0.792877         0.633920
 C        -1.664393         0.504591        -0.300183
 C        -1.001433        -0.300373        -1.323921
 C        -0.474470        -1.114193        -0.072397
 C         0.302161        -2.428389        -0.002236
 C         0.159997        -0.096744         0.747389
 O         1.197407        -0.055879         1.381388
 O        -0.596085         1.092878         0.514783
 H        -3.225429        -2.788830         0.794018
 H        -4.018297        -1.356181         0.370595
 H        -3.057615        -2.238411        -0.812688
 H        -1.991944        -0.509611         1.661098
 H        -2.303667         1.298541        -0.725059
 H        -1.667903        -1.047113        -1.779273
 H        -0.142391         0.075861        -1.874643
 H        -0.207086        -3.258674        -0.564300
 H         1.328652        -2.298586        -0.487319
 H         0.182716        -2.870709         1.014952
