19
Iteration:   144charge 0 multiplicity 1
 C        -2.939179        -1.503287         1.577748
 C        -1.737619        -0.704303         1.164309
 C        -1.756936         0.409832        -0.029402
 C        -1.491836        -0.447292        -1.175596
 C        -0.662402        -1.210948         0.050688
 C        -0.053813        -2.562898        -0.063595
 C         0.333922        -0.065848         0.161969
 O         1.539539        -0.097104        -0.010837
 O        -0.424778         1.062005         0.212448
 H        -2.658611        -2.173098         2.415868
 H        -3.789299        -1.028544         1.939392
 H        -3.288794        -2.231053         0.838092
 H        -1.335380        -0.232284         2.051957
 H        -2.508793         1.237200         0.086152
 H        -2.338819        -0.885653        -1.690579
 H        -0.867100        -0.128458        -1.955422
 H        -0.785305        -3.332573         0.006396
 H         0.449110        -2.688398        -1.012314
 H         0.680833        -2.627571         0.852405
