19
Iteration:   982
 C        -3.011677        -1.695548         0.995289
 C        -1.792449        -0.677240         0.766166
 C        -1.681202         0.428809        -0.271797
 C        -1.191890        -0.625978        -1.307561
 C        -0.571328        -1.167888         0.002854
 C        -0.142297        -2.530333         0.060133
 C         0.305018         0.000324         0.489261
 O         1.470117         0.012776         0.806970
 O        -0.487032         1.152373         0.284345
 H        -3.240775        -1.766559         2.033763
 H        -3.998707        -1.387209         0.617028
 H        -2.907918        -2.655550         0.541444
 H        -1.638659        -0.429622         1.809080
 H        -2.407120         1.285161        -0.439977
 H        -2.083898        -1.105543        -1.680703
 H        -0.485846        -0.349845        -2.145157
 H         0.804534        -2.646982        -0.468602
 H        -0.179151        -2.991791         1.044748
 H        -0.860320        -3.039139        -0.560831
