19
Iteration:  3016
 C        -3.024533        -1.739194        -0.022362
 C        -2.021616        -0.749417         0.527992
 C        -1.594499         0.470504        -0.441010
 C        -0.876181        -0.608467        -1.263387
 C        -0.475640        -1.153600         0.153763
 C        -0.005555        -2.656460         0.471282
 C         0.265886         0.050852         0.683566
 O         1.252957         0.180681         1.401185
 O        -0.616162         1.127784         0.337072
 H        -2.961931        -1.768991        -1.099593
 H        -2.951241        -2.708600         0.459570
 H        -4.048513        -1.353010         0.160267
 H        -2.094480        -0.423655         1.622505
 H        -2.435616         1.126696        -0.815706
 H        -1.550965        -1.292982        -1.910780
 H        -0.051354        -0.284872        -1.925464
 H        -0.351061        -3.387606        -0.285216
 H         1.127498        -2.705263         0.385415
 H        -0.397956        -3.158459         1.332246
