19
Iteration:  3984charge 0 multiplicity 1
 C        -3.091949        -1.783272         0.267678
 C        -1.938802        -0.847701         0.594858
 C        -1.743882         0.375566        -0.277097
 C        -0.984869        -0.418023        -1.240158
 C        -0.534624        -1.182572        -0.006024
 C         0.129915        -2.552540        -0.159934
 C         0.278743         0.052496         0.750535
 O         1.372998         0.124438         1.317164
 O        -0.629654         1.090395         0.586091
 H        -3.522921        -2.440448         1.037234
 H        -3.908936        -1.165190        -0.239697
 H        -2.753293        -2.446112        -0.536711
 H        -1.797705        -0.467836         1.641914
 H        -2.546323         1.083051        -0.475260
 H        -1.609136        -0.918623        -1.924231
 H        -0.367659         0.183980        -1.901516
 H         1.216330        -2.430900        -0.483183
 H         0.169696        -2.848411         0.898000
 H        -0.459867        -3.374326        -0.567640
