19
Iteration:  4863charge 0 multiplicity 1
 C        -3.084161        -1.764955        -0.011528
 C        -1.973183        -0.883385         0.631167
 C        -1.635629         0.366415        -0.230973
 C        -0.828957        -0.329710        -1.253168
 C        -0.477231        -1.182556         0.136748
 C         0.079623        -2.559663         0.133903
 C         0.206166        -0.002604         0.753535
 O         1.341726         0.160678         1.016232
 O        -0.726589         1.091990         0.740088
 H        -2.938832        -2.830047         0.317939
 H        -4.015190        -1.386317         0.300690
 H        -2.965389        -1.847850        -1.069531
 H        -2.218490        -0.697373         1.666879
 H        -2.456589         1.034079        -0.542275
 H        -1.452866        -1.000770        -1.876076
 H         0.044653         0.182307        -1.751569
 H        -0.663286        -3.182561        -0.415273
 H         0.828599        -2.524367        -0.635671
 H         0.241913        -3.167592         1.047503
