19
Iteration:   393
 C        -2.941230        -1.486275         1.229418
 C        -1.772400        -0.634046         1.036730
 C        -1.762688         0.511180        -0.158364
 C        -1.444769        -0.654534        -1.182070
 C        -0.620490        -1.217014         0.043119
 C         0.013527        -2.549813         0.178555
 C         0.352295        -0.082306         0.232249
 O         1.549980        -0.052482         0.218245
 O        -0.515462         1.064697         0.272088
 H        -3.454065        -1.074833         2.154198
 H        -3.643419        -1.449766         0.425940
 H        -2.659457        -2.539598         1.463764
 H        -1.362766        -0.186352         1.965635
 H        -2.596220         1.270154        -0.339027
 H        -2.362069        -1.293190        -1.349917
 H        -1.004050        -0.475207        -2.161501
 H        -0.807269        -3.290004         0.390495
 H         0.334522        -2.868915        -0.834761
 H         0.812129        -2.599333         0.886220
