19
Iteration:  4117
 C        -3.108773        -1.816526         0.138466
 C        -1.978457        -0.953209         0.660740
 C        -1.726419         0.495446        -0.179372
 C        -0.927630        -0.330926        -1.270922
 C        -0.507336        -1.193060         0.021505
 C         0.104297        -2.571814         0.023866
 C         0.295403        -0.002040         0.708427
 O         1.390852         0.207861         1.193503
 O        -0.668719         1.036843         0.568981
 H        -2.938422        -2.917793         0.184242
 H        -4.162563        -1.598465         0.538258
 H        -3.153467        -1.666819        -0.972336
 H        -2.231052        -0.649650         1.706165
 H        -2.526877         1.216402        -0.217941
 H        -1.582172        -0.920924        -1.928107
 H        -0.086027         0.164674        -1.721388
 H         1.019173        -2.467708        -0.629416
 H         0.536626        -2.903041         1.013233
 H        -0.553925        -3.364005        -0.349002
