19
Iteration:   357charge 0 multiplicity 1
 C        -3.011942        -1.619866         1.297121
 C        -1.708554        -0.735713         1.092951
 C        -1.729952         0.513151        -0.028899
 C        -1.465598        -0.561971        -1.148716
 C        -0.630747        -1.178592         0.114508
 C        -0.147583        -2.599629         0.153460
 C         0.419194        -0.094525         0.249690
 O         1.602478         0.039921         0.234910
 O        -0.453894         1.130540        -0.009626
 H        -3.887371        -0.972087         1.244486
 H        -3.164040        -2.363767         0.437827
 H        -3.097918        -2.263475         2.190445
 H        -1.341591        -0.514860         2.102725
 H        -2.454629         1.316675        -0.175712
 H        -2.452881        -1.025764        -1.418072
 H        -0.870391        -0.243541        -2.120654
 H        -0.810992        -3.284849        -0.534395
 H         0.937095        -2.573074        -0.211386
 H        -0.225757        -3.135944         1.116681
