19
Iteration:  2026
 C        -3.234410        -1.666207         0.003192
 C        -2.078688        -0.738115         0.299827
 C        -1.490806         0.369072        -0.642858
 C        -0.616130        -0.674427        -1.309684
 C        -0.482226        -1.202163         0.173774
 C        -0.004379        -2.564952         0.623674
 C         0.218323         0.048889         0.782188
 O         1.242328         0.135021         1.395551
 O        -0.641189         1.158813         0.424091
 H        -3.165478        -2.366868        -0.826207
 H        -3.272920        -2.217853         0.959072
 H        -4.097899        -1.055815        -0.118272
 H        -2.338691        -0.241323         1.253754
 H        -2.170038         1.179275        -1.056204
 H        -1.127432        -1.349627        -1.948450
 H         0.327663        -0.280142        -1.783465
 H        -0.646294        -3.230621         0.048181
 H         1.078441        -2.920481         0.572832
 H        -0.259190        -2.739126         1.671845
