19
Iteration:  4964
 C        -3.187506        -1.895842         0.284595
 C        -1.945219        -0.799757         0.548304
 C        -1.706430         0.571421        -0.297034
 C        -0.947914        -0.360307        -1.308715
 C        -0.422803        -1.140580        -0.088281
 C         0.271856        -2.491096        -0.094064
 C         0.193714        -0.047911         0.785846
 O         1.175288        -0.036135         1.487529
 O        -0.564834         1.137676         0.472569
 H        -2.883604        -2.622179         1.041230
 H        -4.149342        -1.464591         0.503167
 H        -3.217721        -2.444395        -0.610510
 H        -1.884632        -0.743861         1.606871
 H        -2.506873         1.228952        -0.655219
 H        -1.801177        -0.952400        -1.772892
 H        -0.282499         0.137612        -2.086245
 H        -0.149919        -3.234110        -0.836078
 H         1.356197        -2.315118        -0.387285
 H         0.366999        -2.903986         0.925741
