19
Iteration:  2974charge 0 multiplicity 1
 C        -3.144539        -1.814511        -0.030472
 C        -2.039762        -0.764500         0.422112
 C        -1.653002         0.445375        -0.486925
 C        -0.700254        -0.441890        -1.328597
 C        -0.558025        -1.171114         0.208988
 C         0.069044        -2.447112         0.690031
 C         0.222214        -0.020392         0.729625
 O         1.356266         0.004171         1.213500
 O        -0.678763         1.093880         0.410099
 H        -3.739321        -1.479724        -0.810654
 H        -2.719921        -2.753826        -0.396982
 H        -3.817841        -2.109295         0.726739
 H        -2.299599        -0.403384         1.436717
 H        -2.293283         1.317385        -0.912048
 H        -1.235327        -0.948717        -2.161559
 H         0.214411        -0.038668        -1.740843
 H        -0.481773        -3.367419         0.231684
 H         1.160547        -2.333815         0.492470
 H        -0.289498        -2.544564         1.746670
