19
Iteration:  2206
 C        -2.978710        -1.683732        -0.038832
 C        -1.930511        -0.821832         0.503926
 C        -1.566817         0.449397        -0.457087
 C        -0.786216        -0.600790        -1.338589
 C        -0.523807        -1.183450         0.154475
 C        -0.123556        -2.587333         0.726923
 C         0.205054         0.064009         0.646390
 O         1.077734         0.140929         1.495248
 O        -0.454659         1.122678         0.141426
 H        -2.707930        -2.286017        -0.899076
 H        -3.245268        -2.411766         0.643279
 H        -3.897426        -1.172532        -0.244847
 H        -2.099044        -0.395613         1.498585
 H        -2.196602         1.170079        -0.965956
 H        -1.543268        -1.089107        -2.058117
 H         0.121021        -0.387117        -1.937388
 H        -0.414538        -3.429816        -0.019425
 H         0.965167        -2.601407         0.907000
 H        -0.808553        -2.904186         1.570652
