19
Iteration:     7
 C        -2.799614        -1.578767         1.575650
 C        -1.630347        -0.627419         1.143487
 C        -1.792866         0.535751         0.107450
 C        -1.699536        -0.575121        -1.037711
 C        -0.669141        -1.193264        -0.010843
 C        -0.099151        -2.628122        -0.091410
 C         0.351943        -0.061983         0.068784
 O         1.546372        -0.052289        -0.017701
 O        -0.396067         1.065381         0.171753
 H        -3.291669        -0.848034         2.253278
 H        -3.476583        -1.696194         0.689638
 H        -2.412554        -2.453525         2.107693
 H        -0.956148        -0.394456         2.015919
 H        -2.458125         1.410913         0.195934
 H        -2.682265        -1.043766        -1.274947
 H        -1.447875        -0.292962        -2.087654
 H         0.742939        -2.988698         0.635277
 H        -0.958467        -3.311945         0.038009
 H         0.301973        -2.710258        -1.111898
