19
Iteration:  4640charge 0 multiplicity 1
 C        -3.136131        -1.761551         0.034892
 C        -2.040672        -0.858990         0.588399
 C        -1.679509         0.414331        -0.198064
 C        -0.767632        -0.339744        -1.156329
 C        -0.517091        -1.187735         0.113700
 C         0.177143        -2.551149         0.077980
 C         0.217784         0.068230         0.723609
 O         1.358002         0.130797         1.017962
 O        -0.745817         0.993913         0.714809
 H        -3.346369        -2.626743         0.661181
 H        -4.145973        -1.278818        -0.171547
 H        -2.756843        -2.003179        -0.981906
 H        -2.088239        -0.908420         1.672070
 H        -2.411739         1.115903        -0.626909
 H        -1.621151        -0.696344        -1.823778
 H         0.088532         0.001879        -1.786507
 H        -0.435418        -3.168792        -0.627262
 H         1.236502        -2.488878        -0.229085
 H         0.322190        -3.002416         1.038218
