19
Iteration:  3465
 C        -3.016874        -1.777600        -0.021471
 C        -1.976667        -0.841368         0.562552
 C        -1.714540         0.462776        -0.257108
 C        -0.911633        -0.512272        -1.245908
 C        -0.531600        -1.174431         0.110584
 C         0.016340        -2.598825         0.304906
 C         0.222430         0.048884         0.732506
 O         1.373245         0.157716         1.078323
 O        -0.589044         1.105850         0.588917
 H        -2.623397        -2.679340        -0.546206
 H        -3.708656        -2.054525         0.809330
 H        -3.748381        -1.208199        -0.613220
 H        -2.015141        -0.677992         1.672111
 H        -2.452886         1.258320        -0.408905
 H        -1.571922        -1.048930        -1.986973
 H        -0.044712        -0.065037        -1.781663
 H         1.097724        -2.577750         0.006679
 H        -0.223510        -2.925545         1.427187
 H        -0.614847        -3.181004        -0.435993
