19
Iteration:  2827charge 0 multiplicity 1
 C        -3.089865        -1.688800         0.237013
 C        -2.016468        -0.682836         0.435983
 C        -1.595731         0.457908        -0.635607
 C        -0.691435        -0.673809        -1.342291
 C        -0.481299        -1.228611         0.048273
 C         0.064617        -2.485504         0.511013
 C         0.133317        -0.000849         0.724911
 O         0.964158         0.134188         1.632439
 O        -0.445044         1.037450         0.134763
 H        -2.771372        -2.681254         0.620278
 H        -3.918504        -1.476904         0.828447
 H        -3.466382        -1.801302        -0.764967
 H        -2.129938        -0.287451         1.505109
 H        -2.017837         1.249784        -1.194963
 H        -1.282160        -1.373428        -1.946982
 H         0.161822        -0.210711        -1.984627
 H        -0.299200        -3.420861         0.126945
 H         1.175882        -2.306567         0.213204
 H         0.041395        -2.468522         1.616984
