19
Iteration:   700charge 0 multiplicity 1
 C        -3.004931        -1.439402         0.953125
 C        -1.746469        -0.638657         0.942175
 C        -1.779191         0.457095        -0.147815
 C        -1.450355        -0.631523        -1.194539
 C        -0.541742        -1.234663         0.058641
 C        -0.015547        -2.696804         0.157330
 C         0.325120        -0.042867         0.346625
 O         1.517411         0.069034         0.535249
 O        -0.447776         1.054146         0.228551
 H        -3.114327        -1.920589         1.934675
 H        -4.001164        -1.011455         0.736427
 H        -2.858281        -2.271668         0.260002
 H        -1.437899        -0.214600         1.906334
 H        -2.546555         1.211926        -0.305423
 H        -2.313842        -1.116965        -1.601711
 H        -0.917326        -0.248636        -2.047097
 H         0.613905        -2.841147         1.047713
 H        -0.870704        -3.324285         0.242907
 H         0.591301        -3.172442        -0.766661
