19
Iteration:  3440charge 0 multiplicity 1
 C        -3.172950        -1.745741         0.026197
 C        -2.067773        -0.808171         0.606421
 C        -1.649723         0.386402        -0.287513
 C        -0.731529        -0.413824        -1.239404
 C        -0.485870        -1.204560         0.226110
 C        -0.012145        -2.682914         0.252246
 C         0.275426         0.022114         0.722696
 O         1.440761         0.249784         1.037575
 O        -0.716016         1.048227         0.541448
 H        -2.833342        -2.182184        -0.872941
 H        -3.288776        -2.491724         0.808617
 H        -4.138170        -1.298856        -0.087391
 H        -2.158024        -0.539095         1.609176
 H        -2.401230         1.162377        -0.544542
 H        -1.307473        -0.970184        -1.853041
 H         0.115286         0.204096        -1.652399
 H         1.111966        -2.770036         0.294825
 H        -0.517661        -3.168409         1.155848
 H        -0.354603        -3.010945        -0.753705
