19
Iteration:  1987charge 0 multiplicity 1
 C        -3.223805        -1.500855        -0.086996
 C        -2.005086        -0.811316         0.513355
 C        -1.590974         0.315017        -0.435159
 C        -0.680300        -0.751539        -1.240462
 C        -0.504734        -1.263689         0.270092
 C         0.034603        -2.668385         0.501470
 C         0.211734         0.077652         0.742421
 O         1.137347         0.304165         1.462113
 O        -0.475632         1.143609         0.165380
 H        -3.090624        -1.792150        -1.148714
 H        -3.670208        -2.372134         0.431135
 H        -4.064734        -0.698997         0.010676
 H        -2.268999        -0.664248         1.576408
 H        -2.272416         0.837300        -1.050394
 H        -1.189751        -1.377720        -2.021738
 H         0.327100        -0.471690        -1.662327
 H        -0.012398        -3.204753        -0.485595
 H         1.028674        -2.678970         0.876207
 H        -0.582966        -3.154920         1.310263
