19
Iteration:  4758charge 0 multiplicity 1
 C        -3.073668        -1.835903         0.437290
 C        -1.916286        -0.818144         0.539096
 C        -1.675320         0.400806        -0.363869
 C        -0.917169        -0.349252        -1.356580
 C        -0.510451        -1.180785        -0.029594
 C         0.192839        -2.493693        -0.265413
 C         0.228517        -0.092638         0.798027
 O         1.139993         0.068250         1.611966
 O        -0.587844         1.153703         0.437573
 H        -2.955426        -2.735310         1.073606
 H        -4.094022        -1.376195         0.783731
 H        -3.320712        -2.117142        -0.652123
 H        -1.794211        -0.742163         1.697360
 H        -2.338478         1.147156        -0.798484
 H        -1.516510        -0.796893        -2.158321
 H        -0.195359         0.300191        -1.813743
 H        -0.529877        -3.160112        -0.793970
 H         1.126255        -2.329706        -0.824956
 H         0.524205        -2.966037         0.650278
