19
Iteration:  3519charge 0 multiplicity 1
 C        -3.138542        -1.717878         0.219394
 C        -1.977830        -0.840945         0.535213
 C        -1.606907         0.438241        -0.268376
 C        -0.919303        -0.396333        -1.325731
 C        -0.500130        -1.196620         0.042437
 C         0.263033        -2.449058         0.135183
 C         0.171738        -0.032815         0.700407
 O         1.165900        -0.025901         1.367944
 O        -0.588016         1.109743         0.412863
 H        -3.081583        -2.673710         0.737808
 H        -4.143923        -1.338497         0.461339
 H        -3.124158        -1.930302        -0.837943
 H        -1.837965        -0.592507         1.589422
 H        -2.451130         1.104422        -0.469427
 H        -1.587212        -1.073672        -1.905285
 H        -0.266719         0.053919        -2.053274
 H         0.863189        -2.360215        -0.795896
 H         0.912788        -2.457385         1.123981
 H        -0.352141        -3.391771         0.246928
