19
Iteration:  4239charge 0 multiplicity 1
 C        -3.074946        -1.789692         0.259395
 C        -1.922733        -0.910859         0.653770
 C        -1.679222         0.435963        -0.209575
 C        -1.026064        -0.396701        -1.293543
 C        -0.459530        -1.202956         0.054524
 C         0.118366        -2.556920        -0.148574
 C         0.290674         0.024624         0.738982
 O         1.286882         0.147717         1.386493
 O        -0.633082         1.127619         0.422560
 H        -3.195965        -2.591682         1.039033
 H        -4.075261        -1.280492         0.114379
 H        -2.939426        -2.430554        -0.716597
 H        -1.899531        -0.811498         1.777832
 H        -2.550428         1.152465        -0.342045
 H        -1.798745        -0.739728        -2.031499
 H        -0.221168         0.116504        -1.754879
 H         1.088901        -2.291248        -0.533993
 H         0.293503        -3.197087         0.772452
 H        -0.433438        -3.229363        -0.871409
