19
Iteration:   737charge 0 multiplicity 1
 C        -3.291177        -1.476976         1.237853
 C        -1.899823        -0.746276         0.880772
 C        -1.788770         0.379732        -0.247537
 C        -1.241796        -0.550008        -1.208301
 C        -0.539583        -1.223120         0.043733
 C         0.156456        -2.577877         0.036292
 C         0.323811        -0.010972         0.410985
 O         1.530242        -0.027366         0.576879
 O        -0.424319         1.100106         0.128615
 H        -3.025511        -2.163631         2.044907
 H        -4.046267        -0.674721         1.483418
 H        -3.682586        -2.083052         0.378803
 H        -1.596802        -0.321738         1.871517
 H        -2.438478         1.270466        -0.459907
 H        -1.936763        -1.335136        -1.595841
 H        -0.497219        -0.222669        -1.998136
 H         1.221751        -2.736389         0.280755
 H        -0.520693        -3.015600         0.837991
 H        -0.100826        -3.080816        -0.966678
