19
Iteration:  4274charge 0 multiplicity 1
 C        -3.025630        -1.806691         0.382127
 C        -1.896314        -0.765858         0.597582
 C        -1.695288         0.450156        -0.251019
 C        -1.044939        -0.384578        -1.383250
 C        -0.452048        -1.090796        -0.091422
 C         0.234916        -2.414378        -0.055155
 C         0.268266        -0.001872         0.702039
 O         1.146537        -0.119205         1.485743
 O        -0.655031         1.067231         0.408494
 H        -2.660179        -2.752623         0.877709
 H        -3.906744        -1.503788         0.968270
 H        -3.236670        -2.028168        -0.726969
 H        -1.789679        -0.503782         1.660546
 H        -2.467941         1.191499        -0.563855
 H        -1.884613        -0.785522        -1.961367
 H        -0.236754         0.019137        -1.975807
 H         0.914698        -2.470008        -0.959173
 H         0.936926        -2.553431         0.848678
 H        -0.521488        -3.278649        -0.230908
