19
Iteration:  2690charge 0 multiplicity 1
 C        -3.126267        -1.785412         0.036068
 C        -2.001006        -0.760483         0.416789
 C        -1.562975         0.409770        -0.547336
 C        -0.718680        -0.546315        -1.393850
 C        -0.500358        -1.133876         0.178262
 C        -0.075765        -2.538648         0.704278
 C         0.239324         0.000990         0.756558
 O         1.192963         0.156395         1.456201
 O        -0.556799         1.100605         0.206508
 H        -3.214942        -1.841826        -1.074951
 H        -2.735892        -2.810021         0.350569
 H        -4.123485        -1.555985         0.512578
 H        -2.184283        -0.288756         1.353275
 H        -2.205158         1.173437        -1.036213
 H        -1.229723        -1.346277        -2.041035
 H         0.144799        -0.126326        -1.875308
 H        -0.723305        -3.270947         0.262747
 H         0.905607        -2.805806         0.408317
 H        -0.177277        -2.646332         1.774805
