19
Iteration:  1700charge 0 multiplicity 1
 C        -3.192286        -1.523757         0.358461
 C        -1.913052        -0.750290         0.511368
 C        -1.621786         0.432728        -0.478862
 C        -0.855788        -0.554000        -1.342116
 C        -0.487670        -1.242013         0.018867
 C         0.137941        -2.652514         0.482826
 C         0.190550        -0.022663         0.671411
 O         1.133930         0.037021         1.414157
 O        -0.511152         1.133608         0.121746
 H        -4.147153        -1.049091         0.932274
 H        -3.535175        -1.815108        -0.716936
 H        -3.039137        -2.487898         0.903981
 H        -1.920176        -0.411693         1.572804
 H        -2.216504         1.235153        -0.989731
 H        -1.547054        -1.263001        -1.933820
 H        -0.005808        -0.086718        -1.854383
 H        -0.513977        -3.489109         0.343286
 H         1.163815        -2.713669         0.015454
 H         0.386633        -2.560810         1.526454
