19
Iteration:   546
 C        -2.927914        -1.485847         1.088040
 C        -1.773175        -0.581167         0.906275
 C        -1.851547         0.385406        -0.149720
 C        -1.508435        -0.691944        -1.143055
 C        -0.580114        -1.161241         0.058055
 C        -0.029307        -2.579505         0.149664
 C         0.405615        -0.021949         0.239749
 O         1.550633        -0.038189         0.607191
 O        -0.456479         1.079719         0.059842
 H        -2.600610        -2.564388         1.084364
 H        -3.256917        -1.235718         2.062873
 H        -3.763080        -1.321764         0.402156
 H        -1.331046        -0.128010         1.814235
 H        -2.632255         1.143256        -0.177683
 H        -2.425166        -1.299058        -1.170997
 H        -1.009274        -0.482243        -2.017456
 H         0.308767        -2.875454        -0.887989
 H         0.818353        -2.655170         0.827997
 H        -0.736059        -3.274507         0.606910
