19
Iteration:  1713charge 0 multiplicity 1
 C        -3.180026        -1.635739         0.304712
 C        -1.961657        -0.712551         0.554589
 C        -1.629662         0.384221        -0.501808
 C        -0.858656        -0.599275        -1.356906
 C        -0.445851        -1.193630         0.101789
 C         0.054621        -2.578945         0.478572
 C         0.268831         0.040703         0.608179
 O         1.150021         0.080546         1.416355
 O        -0.453152         1.103706         0.189526
 H        -3.914990        -1.196779         1.011402
 H        -3.658597        -1.468387        -0.723075
 H        -3.010465        -2.730077         0.462603
 H        -1.949099        -0.359626         1.614416
 H        -2.517393         1.054475        -0.880117
 H        -1.515732        -1.190650        -2.007937
 H        -0.067891        -0.226281        -2.078085
 H        -0.865555        -3.211937         0.426525
 H         0.633928        -3.129810        -0.253010
 H         0.438049        -2.605213         1.507044
