19
Iteration:  1885charge 0 multiplicity 1
 C        -3.078881        -1.665404         0.211483
 C        -1.978943        -0.613169         0.436120
 C        -1.440629         0.383277        -0.587358
 C        -0.714217        -0.691511        -1.340867
 C        -0.495697        -1.208395         0.108148
 C        -0.125495        -2.655832         0.454047
 C         0.197504         0.009868         0.750791
 O         1.081269         0.283529         1.530795
 O        -0.511464         1.040751         0.201204
 H        -3.215143        -2.096538        -0.795061
 H        -3.013116        -2.421090         1.029899
 H        -3.971662        -1.123699         0.441617
 H        -2.102832        -0.194417         1.467313
 H        -2.086893         1.237325        -0.980342
 H        -1.529417        -1.298323        -1.770721
 H         0.211569        -0.421444        -1.962389
 H         0.958343        -2.796574         0.283190
 H        -0.442576        -3.080626         1.506115
 H        -0.601853        -3.352445        -0.273769
