19
Iteration:  1219charge 0 multiplicity 1
 C        -3.307746        -1.422573         0.798294
 C        -1.898036        -0.776985         0.701451
 C        -1.699173         0.403218        -0.377474
 C        -1.126998        -0.555772        -1.345822
 C        -0.441724        -1.207395         0.002447
 C         0.161387        -2.590814         0.119284
 C         0.319686        -0.050748         0.531211
 O         1.444017         0.032620         0.983137
 O        -0.571236         1.045975         0.341993
 H        -3.495871        -2.221947        -0.035185
 H        -3.248561        -2.102960         1.721661
 H        -4.138198        -0.707930         1.142676
 H        -1.696006        -0.192363         1.660044
 H        -2.627515         1.011994        -0.539530
 H        -1.726693        -1.310553        -1.782247
 H        -0.477492        -0.185941        -2.206832
 H         0.637794        -3.066707        -0.708612
 H         0.966693        -2.449125         0.956934
 H        -0.551931        -3.283465         0.464336
