19
Iteration:   799
 C        -3.074462        -1.554347         0.932773
 C        -1.772894        -0.721593         0.883103
 C        -1.774046         0.446173        -0.121983
 C        -1.483044        -0.550430        -1.176713
 C        -0.563574        -1.196010         0.010601
 C         0.000213        -2.675385         0.205753
 C         0.447199         0.059690         0.265822
 O         1.548622        -0.007005         0.796797
 O        -0.459509         1.138505        -0.003852
 H        -2.811075        -2.589631         1.110032
 H        -3.691481        -1.336445         1.846299
 H        -3.682773        -1.590275         0.033323
 H        -1.393468        -0.464234         1.886754
 H        -2.630029         1.184753        -0.142688
 H        -2.177345        -1.282201        -1.445496
 H        -0.923281        -0.093518        -1.999505
 H         0.491887        -3.135960        -0.617362
 H         0.644873        -2.839443         1.021207
 H        -0.902096        -3.311042         0.636480
