19
Iteration:  4515
 C        -3.055115        -1.806647         0.361257
 C        -1.913192        -0.848647         0.577605
 C        -1.675207         0.511582        -0.343110
 C        -0.902827        -0.348164        -1.354927
 C        -0.458752        -1.137380        -0.101236
 C         0.247879        -2.494814        -0.146810
 C         0.213635        -0.014408         0.800349
 O         1.161528        -0.063448         1.529479
 O        -0.709809         1.101488         0.450720
 H        -2.845686        -2.802669         0.844921
 H        -3.874575        -1.224748         0.865767
 H        -3.543412        -1.945142        -0.649903
 H        -1.908814        -0.591985         1.705652
 H        -2.463155         1.221299        -0.632255
 H        -1.600667        -0.938020        -1.894783
 H        -0.129173         0.158554        -1.913869
 H        -0.412303        -3.253850        -0.474758
 H         1.082447        -2.494645        -0.826563
 H         0.670584        -2.739891         0.832636
