19
Iteration:  3329
 C        -3.045997        -1.682546         0.348354
 C        -1.931257        -0.732764         0.538169
 C        -1.608586         0.418026        -0.451267
 C        -0.884227        -0.509594        -1.353448
 C        -0.464261        -1.181625         0.025868
 C         0.127805        -2.545479         0.017586
 C         0.199523        -0.031847         0.784137
 O         1.084965         0.092920         1.617617
 O        -0.591120         1.078253         0.251343
 H        -3.985836        -1.158289         0.624398
 H        -3.199638        -2.040840        -0.646373
 H        -2.785264        -2.610995         0.929195
 H        -1.965216        -0.361197         1.575557
 H        -2.361491         1.206811        -0.697733
 H        -1.524678        -1.203505        -2.025611
 H         0.010696        -0.085165        -1.846364
 H         0.992463        -2.714664        -0.688648
 H         0.524340        -2.841572         1.102434
 H        -0.643048        -3.397411        -0.089778
