19
Iteration:  4419charge 0 multiplicity 1
 C        -3.005642        -1.850829        -0.032320
 C        -2.038992        -0.858848         0.538538
 C        -1.763130         0.447999        -0.125027
 C        -0.932111        -0.288395        -1.367848
 C        -0.516048        -1.168413         0.021577
 C         0.176344        -2.491087         0.191139
 C         0.238854         0.034343         0.741186
 O         1.334708        -0.018224         1.051556
 O        -0.669578         1.104828         0.797894
 H        -3.172766        -2.619996         0.807033
 H        -4.017574        -1.338100        -0.158544
 H        -2.666037        -2.477866        -0.837192
 H        -2.136750        -0.628517         1.586386
 H        -2.484616         1.181114        -0.433284
 H        -1.487879        -0.872080        -2.122440
 H        -0.051567         0.346945        -1.716248
 H        -0.422125        -3.504176         0.099069
 H         0.950011        -2.557752        -0.622682
 H         0.617824        -2.473595         1.255358
