19
Iteration:    16
 C        -2.749549        -1.586973         1.632868
 C        -1.684019        -0.612093         1.074838
 C        -1.799369         0.598909         0.005990
 C        -1.746615        -0.586696        -1.152080
 C        -0.691097        -1.204818        -0.018210
 C        -0.082957        -2.666543        -0.067038
 C         0.338709        -0.077305         0.110666
 O         1.572106        -0.049816        -0.021056
 O        -0.354157         1.103785         0.280623
 H        -3.142051        -1.196141         2.647320
 H        -3.662539        -1.765096         1.022602
 H        -2.382903        -2.627820         1.885534
 H        -1.147667        -0.232646         1.944922
 H        -2.443127         1.505567        -0.002520
 H        -2.726589        -1.124213        -1.010078
 H        -1.274289        -0.372457        -2.137358
 H         0.881486        -2.813150         0.358705
 H        -0.862214        -3.367383         0.286353
 H        -0.044770        -2.905856        -1.202755
