19
Iteration:  2566
 C        -3.091753        -1.741414         0.092815
 C        -1.987992        -0.666097         0.514809
 C        -1.505690         0.433834        -0.662642
 C        -0.756767        -0.668824        -1.331036
 C        -0.584472        -1.201909         0.216455
 C         0.018253        -2.518071         0.566163
 C         0.160257        -0.006552         0.702103
 O         1.056129         0.099595         1.508375
 O        -0.469479         1.123804         0.210344
 H        -2.632857        -2.453723        -0.668721
 H        -3.564407        -2.395497         0.868633
 H        -3.864287        -1.048079        -0.410875
 H        -2.152321        -0.220897         1.530591
 H        -2.065517         1.313559        -1.081581
 H        -1.371530        -1.228725        -1.970523
 H         0.196105        -0.237912        -1.770600
 H        -0.623321        -3.372019         0.383468
 H         0.909445        -2.703190        -0.081902
 H         0.439977        -2.459548         1.568086
