19
Iteration:   813
 C        -3.015610        -1.661939         0.939521
 C        -1.808024        -0.711033         0.949802
 C        -1.795454         0.466715        -0.097957
 C        -1.335588        -0.489452        -1.205184
 C        -0.579105        -1.238736        -0.015649
 C        -0.071855        -2.688637         0.257894
 C         0.382143        -0.074425         0.258751
 O         1.492206         0.100696         0.724054
 O        -0.392036         1.122784         0.035668
 H        -2.834452        -2.737788         1.087547
 H        -3.683478        -1.244217         1.729672
 H        -3.583026        -1.429762         0.014581
 H        -1.626231        -0.400132         1.998851
 H        -2.543670         1.248519        -0.297010
 H        -2.249055        -0.888873        -1.687155
 H        -0.766903        -0.061808        -2.044891
 H        -0.044329        -3.345592        -0.626037
 H         0.925225        -2.381972         0.682049
 H        -0.810022        -3.226405         0.952279
