19
Iteration:  4539charge 0 multiplicity 1
 C        -3.060922        -1.896256         0.376708
 C        -1.960511        -0.855705         0.548063
 C        -1.778610         0.431890        -0.298585
 C        -0.915242        -0.311297        -1.378845
 C        -0.549468        -1.117093        -0.103343
 C         0.253960        -2.393263        -0.037862
 C         0.175875         0.052761         0.657581
 O         1.113451        -0.131413         1.509182
 O        -0.461113         1.125429         0.465520
 H        -2.474738        -2.833465         0.578934
 H        -4.044821        -1.635597         0.928829
 H        -3.489285        -2.004935        -0.630546
 H        -2.066638        -0.413388         1.578735
 H        -2.397802         1.335541        -0.346170
 H        -1.622231        -0.952352        -1.908964
 H        -0.075764         0.177238        -1.856366
 H        -0.165513        -3.115538        -0.757678
 H         1.300651        -2.285614        -0.256784
 H         0.298546        -2.774169         0.964582
