19
Iteration:  4810charge 0 multiplicity 1
 C        -3.032453        -1.821610         0.206926
 C        -1.890420        -0.824023         0.607587
 C        -1.743339         0.493786        -0.260238
 C        -1.097411        -0.336534        -1.413976
 C        -0.538998        -1.120165        -0.037686
 C         0.289223        -2.531597        -0.011822
 C         0.226773         0.052116         0.724699
 O         1.221921        -0.042319         1.442711
 O        -0.592092         1.068873         0.526246
 H        -3.175944        -2.731160         0.748488
 H        -3.952014        -1.243100         0.314796
 H        -2.928581        -2.047057        -0.807853
 H        -1.848277        -0.734475         1.649864
 H        -2.435604         1.339963        -0.206221
 H        -1.786190        -0.980954        -1.978820
 H        -0.352061         0.004392        -2.143969
 H        -0.015399        -3.402500        -0.681812
 H         1.353515        -2.294576        -0.154776
 H         0.184774        -2.940472         1.029114
