19
Iteration:  4603
 C        -3.133528        -1.787629         0.102289
 C        -1.962491        -0.950220         0.557123
 C        -1.701734         0.391329        -0.225672
 C        -0.882343        -0.297168        -1.208175
 C        -0.471169        -1.154025         0.072579
 C         0.097448        -2.552066         0.050580
 C         0.267838         0.042454         0.769024
 O         1.344032         0.198753         1.218522
 O        -0.648484         1.006541         0.553172
 H        -3.185559        -2.771506         0.678659
 H        -4.166327        -1.244808         0.181559
 H        -3.011016        -2.189717        -0.936417
 H        -1.901998        -0.754878         1.728945
 H        -2.471092         1.146070        -0.387131
 H        -1.510420        -0.930491        -1.818550
 H        -0.191674         0.281126        -1.813165
 H        -0.263653        -2.862766        -0.926051
 H         1.148420        -2.652124        -0.067415
 H        -0.453357        -3.274890         0.657887
