19
Iteration:  3094charge 0 multiplicity 1
 C        -3.153337        -1.599508         0.288923
 C        -1.905482        -0.756106         0.485016
 C        -1.558899         0.453568        -0.530286
 C        -0.817613        -0.553588        -1.421196
 C        -0.452463        -1.142319         0.000835
 C         0.246312        -2.481108         0.293972
 C         0.197490        -0.056473         0.698659
 O         0.950334         0.003922         1.616815
 O        -0.597987         1.019538         0.307281
 H        -2.949095        -2.654760         0.360538
 H        -3.866880        -1.403857         1.149377
 H        -3.727017        -1.353072        -0.624099
 H        -1.798418        -0.325786         1.548922
 H        -2.275595         1.218716        -1.094320
 H        -1.500106        -1.302667        -1.893219
 H        -0.006991        -0.297452        -2.171996
 H        -0.338230        -3.485886         0.335767
 H         1.066992        -2.563674        -0.416712
 H         0.761293        -2.246304         1.281486
