19
Iteration:  4766
 C        -3.130748        -1.811365         0.430465
 C        -1.907930        -0.915209         0.664648
 C        -1.754903         0.472786        -0.386994
 C        -0.906624        -0.363765        -1.393511
 C        -0.441365        -1.169584        -0.095800
 C         0.207033        -2.492274        -0.188791
 C         0.267537        -0.023186         0.746559
 O         1.106792         0.021341         1.605898
 O        -0.577508         1.138377         0.451139
 H        -2.955485        -2.723726         0.989479
 H        -4.076152        -1.368606         0.720623
 H        -2.996337        -2.117446        -0.557861
 H        -1.847457        -0.581737         1.681532
 H        -2.437464         1.293198        -0.728741
 H        -1.414469        -0.813305        -2.275593
 H        -0.109900         0.262392        -1.865767
 H        -0.409132        -3.104195        -0.934719
 H         1.039082        -2.213088        -0.847179
 H         0.422065        -3.220346         0.652620
