19
Iteration:  3553
 C        -3.191649        -1.663944         0.359466
 C        -1.967631        -0.760062         0.532503
 C        -1.643780         0.352258        -0.349904
 C        -0.845298        -0.503402        -1.396652
 C        -0.374461        -1.211959        -0.031581
 C         0.199195        -2.573802        -0.106646
 C         0.233522         0.036352         0.733350
 O         1.119965         0.124737         1.569166
 O        -0.612706         1.101561         0.479026
 H        -3.403059        -2.167498         1.321157
 H        -4.116293        -1.205792        -0.007562
 H        -2.862011        -2.497819        -0.276631
 H        -1.943589        -0.421362         1.609273
 H        -2.471886         1.070238        -0.412998
 H        -1.514069        -1.270278        -1.955431
 H        -0.261683         0.140054        -2.004178
 H         0.709664        -2.731535        -1.106308
 H         1.102217        -2.922257         0.564572
 H        -0.591256        -3.375762        -0.327675
