19
Iteration:  1983
 C        -3.250611        -1.538225        -0.109039
 C        -1.985034        -0.776876         0.520424
 C        -1.623178         0.363107        -0.459451
 C        -0.706777        -0.778187        -1.209950
 C        -0.469320        -1.253293         0.262508
 C         0.035409        -2.674717         0.484715
 C         0.208180         0.103344         0.750594
 O         1.162363         0.272315         1.500656
 O        -0.477378         1.137523         0.142528
 H        -3.120838        -1.727163        -1.145327
 H        -3.687274        -2.430467         0.357776
 H        -3.936024        -0.772549         0.035591
 H        -2.297345        -0.594653         1.578711
 H        -2.348939         0.955855        -1.130185
 H        -1.328208        -1.444529        -1.792360
 H         0.274616        -0.521426        -1.824783
 H         0.067572        -3.195998        -0.502893
 H         1.105277        -2.635897         0.993593
 H        -0.504046        -3.184478         1.313701
