19
Iteration:  1100
 C        -3.207851        -1.585214         0.797229
 C        -1.915302        -0.809101         0.851022
 C        -1.743463         0.386630        -0.256420
 C        -1.033628        -0.507942        -1.360681
 C        -0.532460        -1.177339         0.012641
 C        -0.057995        -2.558975         0.272806
 C         0.346924         0.001382         0.429866
 O         1.516588         0.043851         0.711660
 O        -0.513613         1.084140         0.371037
 H        -3.167590        -2.707551         0.671881
 H        -3.729968        -1.583849         1.781211
 H        -3.884097        -1.186839         0.037313
 H        -1.669014        -0.445763         1.866124
 H        -2.454086         1.250525        -0.391180
 H        -1.698778        -1.102758        -1.943720
 H        -0.298530        -0.038648        -2.087281
 H        -0.709047        -3.182996         0.906242
 H         0.043854        -3.189886        -0.741758
 H         0.944217        -2.515581         0.644352
