19
Iteration:  2484charge 0 multiplicity 1
 C        -3.272408        -1.603423        -0.071898
 C        -2.081687        -0.799028         0.357696
 C        -1.575144         0.340399        -0.654508
 C        -0.575592        -0.649025        -1.242927
 C        -0.524394        -1.218968         0.228080
 C         0.030547        -2.542083         0.762185
 C         0.209249         0.073275         0.743578
 O         1.301820         0.089444         1.275119
 O        -0.634416         1.165624         0.406911
 H        -3.377530        -1.745570        -1.136250
 H        -3.266686        -2.572793         0.380782
 H        -4.149457        -1.116015         0.223607
 H        -2.280293        -0.426450         1.394986
 H        -2.094516         1.169420        -1.095494
 H        -1.149905        -1.311458        -1.992751
 H         0.295836        -0.230440        -1.719147
 H        -0.334884        -3.427348         0.117640
 H         1.160674        -2.486829         0.690675
 H        -0.322051        -2.805913         1.804422
