19
Iteration:  2946charge 0 multiplicity 1
 C        -3.107273        -1.694840        -0.103579
 C        -2.051529        -0.735315         0.449888
 C        -1.615101         0.439931        -0.522871
 C        -0.746613        -0.678721        -1.210405
 C        -0.559234        -1.209652         0.218245
 C         0.133111        -2.519833         0.572531
 C         0.150984         0.001088         0.798026
 O         1.273483         0.147970         1.220403
 O        -0.624782         1.116627         0.437530
 H        -4.057975        -1.058239        -0.341758
 H        -2.825959        -2.304357        -1.020069
 H        -3.452635        -2.473784         0.645722
 H        -2.307526        -0.380463         1.448225
 H        -2.134038         1.231460        -1.024611
 H        -1.408798        -1.199106        -1.887487
 H         0.262638        -0.499827        -1.734979
 H        -0.449045        -3.347601         0.240027
 H         1.083672        -2.440789         0.126240
 H         0.141937        -2.649953         1.650788
