19
Iteration:  1448
 C        -3.069334        -1.670808         0.538763
 C        -2.057734        -0.553389         0.591572
 C        -1.636481         0.389644        -0.433928
 C        -0.921267        -0.596233        -1.315234
 C        -0.601752        -1.185361         0.122384
 C         0.048860        -2.518022         0.300567
 C         0.250609        -0.050282         0.612253
 O         1.299896         0.007993         1.184558
 O        -0.494302         1.071897         0.223428
 H        -2.648981        -2.562652         1.028772
 H        -3.941220        -1.462653         1.151166
 H        -3.337703        -2.013123        -0.453672
 H        -2.097464         0.092626         1.508534
 H        -2.230246         1.215472        -0.723496
 H        -1.521310        -1.383734        -1.822503
 H        -0.246261        -0.083072        -2.025783
 H        -0.584718        -3.259501        -0.198686
 H         1.067490        -2.463684        -0.304217
 H         0.183520        -2.807255         1.352953
