19
Iteration:  2849
 C        -3.079138        -1.748430         0.305274
 C        -2.025074        -0.606704         0.423200
 C        -1.506516         0.433694        -0.686758
 C        -0.728466        -0.666320        -1.384441
 C        -0.481524        -1.182514         0.138583
 C         0.123361        -2.481624         0.502343
 C         0.128807         0.058446         0.704657
 O         0.912226        -0.055242         1.676592
 O        -0.453988         1.179041         0.074325
 H        -2.927333        -2.447812         1.168643
 H        -4.085647        -1.458765         0.336144
 H        -2.992506        -2.312406        -0.621654
 H        -2.163769        -0.228651         1.487114
 H        -2.339172         0.910637        -1.077302
 H        -1.470931        -1.195950        -2.012903
 H         0.244402        -0.287696        -1.923024
 H        -0.486356        -3.217048         0.033164
 H         1.176209        -2.436503         0.026065
 H         0.214445        -2.643086         1.580903
