19
Iteration:  1787charge 0 multiplicity 1
 C        -3.217390        -1.614348         0.077395
 C        -2.007750        -0.790226         0.450282
 C        -1.580115         0.339681        -0.459466
 C        -0.746639        -0.625978        -1.255007
 C        -0.564863        -1.186823         0.181325
 C        -0.028125        -2.461714         0.592402
 C         0.212843         0.013078         0.767470
 O         1.341824         0.100153         1.165306
 O        -0.545484         1.063853         0.307635
 H        -3.267943        -2.676442         0.520350
 H        -4.068001        -1.041128         0.556779
 H        -3.282258        -1.635985        -1.020683
 H        -2.225864        -0.213808         1.367077
 H        -2.217277         1.091495        -0.980350
 H        -1.198567        -1.388689        -1.969235
 H         0.188797        -0.170996        -1.654945
 H        -0.439346        -2.643743         1.578669
 H        -0.381324        -3.366453         0.058729
 H         1.025662        -2.326361         0.764192
