19
Iteration:  4985
 C        -3.071587        -1.799515         0.397686
 C        -1.909153        -0.870315         0.563548
 C        -1.690960         0.375693        -0.306339
 C        -0.931262        -0.355288        -1.407110
 C        -0.486856        -1.154658        -0.053876
 C         0.196304        -2.452036        -0.212813
 C         0.279698         0.032121         0.730747
 O         1.054332         0.032999         1.605846
 O        -0.548945         1.076537         0.466440
 H        -3.044734        -2.685467         1.056117
 H        -3.879649        -1.089487         0.575445
 H        -3.250795        -2.187053        -0.561027
 H        -1.938591        -0.557218         1.627406
 H        -2.490271         1.111024        -0.539157
 H        -1.561457        -1.064257        -2.037322
 H        -0.018550         0.185643        -1.814679
 H        -0.344302        -2.999489        -1.042961
 H         1.246466        -2.352439        -0.581042
 H         0.242223        -3.088183         0.680930
