19
Iteration:   985charge 0 multiplicity 1
 C        -3.033224        -1.666225         0.991209
 C        -1.780547        -0.689700         0.763115
 C        -1.687815         0.442741        -0.273372
 C        -1.207400        -0.627949        -1.323391
 C        -0.547898        -1.170550        -0.017001
 C        -0.162919        -2.530407         0.076917
 C         0.316365        -0.023907         0.476551
 O         1.474754         0.032693         0.820070
 O        -0.499936         1.136858         0.297874
 H        -3.167266        -1.862870         2.070262
 H        -4.033860        -1.372677         0.549052
 H        -2.791891        -2.637083         0.498098
 H        -1.548826        -0.488453         1.833515
 H        -2.339515         1.333867        -0.386875
 H        -2.045524        -1.238340        -1.680492
 H        -0.532482        -0.356739        -2.136062
 H         0.790717        -2.584571        -0.477794
 H        -0.002471        -2.889957         1.049550
 H        -0.985636        -3.082270        -0.510731
