19
Iteration:  1998charge 0 multiplicity 1
 C        -3.224557        -1.459062        -0.053988
 C        -1.991423        -0.838293         0.524989
 C        -1.488796         0.272457        -0.503201
 C        -0.614469        -0.670514        -1.244155
 C        -0.565163        -1.295346         0.207838
 C         0.002402        -2.637600         0.552003
 C         0.179655         0.035852         0.742067
 O         1.150100         0.337662         1.413259
 O        -0.555496         1.060124         0.215641
 H        -3.060053        -1.900612        -1.071540
 H        -3.416813        -2.288579         0.647700
 H        -4.121680        -0.722060        -0.201307
 H        -2.099432        -0.406456         1.536762
 H        -2.211073         0.990322        -0.755607
 H        -0.992958        -1.344951        -2.064711
 H         0.267598        -0.042569        -1.551208
 H        -0.194566        -3.329347        -0.333350
 H         1.031357        -2.671608         0.735643
 H        -0.603239        -3.195359         1.337938
