19
Iteration:  4891
 C        -3.143907        -1.832071        -0.091707
 C        -2.027661        -0.885073         0.527602
 C        -1.740067         0.431539        -0.118981
 C        -0.876763        -0.330860        -1.233396
 C        -0.529147        -1.231217         0.081999
 C         0.037356        -2.604860         0.168743
 C         0.343562        -0.057249         0.718756
 O         1.452886         0.307714         1.077233
 O        -0.660721         1.051957         0.701587
 H        -2.941305        -2.831785         0.355752
 H        -3.989629        -1.226743         0.329257
 H        -3.199185        -1.888749        -1.246172
 H        -2.327710        -0.811221         1.634624
 H        -2.567694         1.145432        -0.244665
 H        -1.319997        -1.010494        -1.941301
 H        -0.030256         0.268020        -1.550788
 H        -0.649593        -3.437137        -0.026349
 H         0.887677        -2.669218        -0.554211
 H         0.392532        -2.829967         1.200410
