19
Iteration:  4270
 C        -3.031043        -1.800073         0.375125
 C        -1.925809        -0.787718         0.601434
 C        -1.703486         0.475006        -0.241305
 C        -1.035161        -0.399360        -1.360982
 C        -0.402383        -1.081499        -0.064033
 C         0.218401        -2.440470        -0.077863
 C         0.259062        -0.054493         0.681749
 O         1.133198        -0.076446         1.468689
 O        -0.631443         1.089861         0.415247
 H        -2.692509        -2.671484         0.950468
 H        -4.039638        -1.601224         0.858049
 H        -3.208694        -2.038183        -0.692590
 H        -1.743441        -0.587649         1.688143
 H        -2.486443         1.245394        -0.415511
 H        -1.745894        -0.877052        -2.050610
 H        -0.309497         0.032759        -2.053849
 H         0.909163        -2.443146        -0.871633
 H         0.802322        -2.591730         0.795782
 H        -0.388717        -3.282167        -0.265216
