19
Iteration:  2806charge 0 multiplicity 1
 C        -3.196596        -1.626990         0.090802
 C        -1.949446        -0.752475         0.435177
 C        -1.557175         0.305497        -0.563008
 C        -0.760248        -0.719338        -1.417679
 C        -0.411449        -1.216244         0.175151
 C         0.077947        -2.587941         0.550452
 C         0.244587         0.093597         0.728074
 O         1.071078         0.226714         1.588508
 O        -0.571662         1.151880         0.211540
 H        -2.950346        -2.699833         0.078999
 H        -3.898611        -1.547637         0.835211
 H        -3.668116        -1.370447        -0.846886
 H        -2.164946        -0.114768         1.371047
 H        -2.162891         1.015374        -1.018163
 H        -1.379469        -1.475716        -1.922809
 H         0.091315        -0.409832        -2.122422
 H        -0.573136        -3.264634        -0.019341
 H         1.215066        -2.921247         0.306789
 H        -0.185843        -2.873762         1.601193
