19
Iteration:  4424
 C        -3.022778        -1.846005        -0.054865
 C        -1.999099        -0.822749         0.568025
 C        -1.746726         0.424749        -0.126835
 C        -0.912867        -0.280034        -1.336490
 C        -0.550131        -1.155933         0.001795
 C         0.174183        -2.494539         0.205257
 C         0.189191        -0.020568         0.757151
 O         1.371217        -0.019501         1.076169
 O        -0.693659         1.109932         0.758071
 H        -3.013952        -2.440432         0.823860
 H        -3.991864        -1.484876        -0.308047
 H        -2.684379        -2.520236        -0.882178
 H        -2.034222        -0.663394         1.686548
 H        -2.501911         1.214819        -0.395922
 H        -1.584423        -0.917357        -1.968159
 H        -0.231646         0.375742        -1.925534
 H        -0.431505        -3.385925         0.074871
 H         0.892489        -2.486659        -0.635212
 H         0.840392        -2.459940         1.071109
