19
Iteration:  2635charge 0 multiplicity 1
 C        -3.175444        -1.484860         0.187530
 C        -2.017418        -0.648220         0.489398
 C        -1.649976         0.265547        -0.622544
 C        -0.728446        -0.708807        -1.283474
 C        -0.466081        -1.225700         0.132816
 C         0.193807        -2.597458         0.343880
 C         0.165272         0.010003         0.795583
 O         0.941398         0.244280         1.648499
 O        -0.411223         1.004931         0.122272
 H        -3.326266        -1.722756        -0.910043
 H        -3.149019        -2.466641         0.733014
 H        -4.100595        -0.957597         0.609351
 H        -2.151360        -0.069763         1.365345
 H        -2.143539         0.965144        -1.253586
 H        -1.167762        -1.582603        -1.892007
 H         0.159349        -0.282548        -1.682769
 H        -0.160693        -3.316774        -0.317991
 H         1.274161        -2.599804         0.207615
 H         0.100817        -2.938597         1.342501
