19
Iteration:  4571
 C        -2.920192        -1.800062         0.172899
 C        -1.891282        -0.826061         0.553656
 C        -1.760013         0.465221        -0.257132
 C        -1.034446        -0.333950        -1.298705
 C        -0.497338        -1.128927        -0.024693
 C         0.200107        -2.551082         0.044995
 C         0.159353         0.028111         0.724679
 O         1.174255        -0.034131         1.376035
 O        -0.559675         1.110535         0.497329
 H        -2.621629        -2.783065         0.674306
 H        -3.884696        -1.559541         0.768082
 H        -3.072669        -1.865720        -0.915057
 H        -1.934718        -0.521566         1.670377
 H        -2.512503         1.253535        -0.266642
 H        -1.769632        -0.958168        -1.787236
 H        -0.455614         0.040017        -2.122782
 H        -0.076680        -3.027875        -0.895531
 H         1.257845        -2.514652         0.116659
 H        -0.153616        -3.184463         0.849938
