19
Iteration:  2617
 C        -3.347326        -1.549901         0.252913
 C        -1.968443        -0.766006         0.440817
 C        -1.438102         0.378937        -0.586071
 C        -0.650027        -0.747819        -1.411397
 C        -0.528329        -1.257776         0.127536
 C         0.219915        -2.531158         0.423459
 C         0.196405         0.036894         0.752850
 O         0.922185         0.145028         1.664556
 O        -0.506176         1.134371         0.097486
 H        -3.405434        -2.022288        -0.681836
 H        -3.471646        -2.323586         1.019367
 H        -4.070475        -0.806898         0.362398
 H        -1.814026        -0.520969         1.546866
 H        -2.176721         1.206266        -0.965417
 H        -1.457251        -1.322743        -1.926792
 H         0.295413        -0.484990        -1.931118
 H        -0.162170        -3.444397        -0.232844
 H         1.247372        -2.372867         0.118831
 H         0.227313        -2.794623         1.543900
