19
Iteration:  2759charge 0 multiplicity 1
 C        -3.169545        -1.656871        -0.196086
 C        -2.184239        -0.664765         0.465274
 C        -1.646295         0.295540        -0.514918
 C        -0.723514        -0.681671        -1.195343
 C        -0.523754        -1.202955         0.358537
 C         0.062022        -2.612897         0.649111
 C         0.241631         0.080423         0.736030
 O         1.316829         0.271773         1.286975
 O        -0.556057         1.059156         0.305991
 H        -2.659946        -2.421275        -0.760346
 H        -3.864504        -2.225803         0.538959
 H        -3.822302        -1.127443        -0.877948
 H        -2.395957        -0.384143         1.529117
 H        -2.300493         1.152207        -0.972152
 H        -1.113142        -1.487789        -1.851769
 H         0.218795        -0.103552        -1.661822
 H        -0.481611        -3.458119         0.118998
 H         1.031889        -2.600572         0.190338
 H         0.224639        -2.972686         1.679187
