19
Iteration:   343
 C        -2.958658        -1.591995         1.203415
 C        -1.667041        -0.630951         1.083508
 C        -1.754695         0.491869        -0.019547
 C        -1.550033        -0.612480        -1.025196
 C        -0.594457        -1.204183         0.080532
 C        -0.165053        -2.641160         0.079802
 C         0.371539         0.012938         0.169491
 O         1.563014         0.034946         0.279469
 O        -0.400905         1.064454         0.034642
 H        -3.836844        -1.053272         0.849339
 H        -2.777334        -2.504219         0.590722
 H        -3.159487        -1.821965         2.247571
 H        -1.229465        -0.256005         2.017976
 H        -2.498163         1.238242         0.052963
 H        -2.304786        -1.390466        -1.090604
 H        -1.052142        -0.317204        -1.984995
 H        -0.510842        -3.124009        -0.809616
 H         0.910534        -2.815561         0.168315
 H        -0.609671        -3.093944         1.064332
