19
Iteration:  3443
 C        -3.163157        -1.727834         0.014706
 C        -2.055556        -0.823537         0.614768
 C        -1.631486         0.403666        -0.285434
 C        -0.745398        -0.384409        -1.198305
 C        -0.484436        -1.226499         0.216804
 C        -0.014843        -2.680315         0.243568
 C         0.290883         0.021061         0.699980
 O         1.439017         0.244324         1.042842
 O        -0.734697         1.058452         0.543306
 H        -2.722198        -2.311162        -0.807135
 H        -3.344812        -2.491341         0.821511
 H        -4.150962        -1.349515        -0.181799
 H        -2.197816        -0.476772         1.663692
 H        -2.393354         1.110334        -0.614669
 H        -1.306012        -1.057363        -1.867129
 H         0.042600         0.159666        -1.795190
 H         1.103544        -2.695790         0.297578
 H        -0.546869        -3.163248         1.166022
 H        -0.415354        -3.208916        -0.683602
