19
Iteration:   532
 C        -2.971736        -1.570691         1.268893
 C        -1.738564        -0.600110         1.014905
 C        -1.794492         0.496536        -0.245305
 C        -1.457475        -0.663915        -1.248932
 C        -0.574044        -1.202878        -0.018163
 C        -0.039486        -2.605973         0.191730
 C         0.335622        -0.011464         0.234974
 O         1.516884        -0.054075         0.572884
 O        -0.434979         1.140859         0.083880
 H        -2.703281        -2.621521         1.075619
 H        -3.528739        -1.604244         2.210313
 H        -3.731519        -1.411489         0.482820
 H        -1.498922        -0.202427         1.992322
 H        -2.518765         1.331727        -0.486646
 H        -2.193188        -1.436100        -1.537570
 H        -1.011324        -0.257216        -2.233322
 H         0.683429        -2.967029        -0.669399
 H         0.606990        -2.684689         1.149336
 H        -0.831901        -3.293328         0.138960
