19
Iteration:  2920charge 0 multiplicity 1
 C        -3.221467        -1.627452        -0.092456
 C        -2.053086        -0.773588         0.527398
 C        -1.695069         0.259567        -0.444703
 C        -0.694475        -0.673127        -1.217376
 C        -0.451064        -1.181539         0.234675
 C         0.065197        -2.593272         0.463548
 C         0.219056         0.082216         0.753790
 O         1.234537         0.268854         1.427971
 O        -0.527723         1.095757         0.235369
 H        -4.137596        -1.225335         0.305399
 H        -3.264208        -1.650942        -1.230887
 H        -3.176345        -2.660143         0.238812
 H        -2.283241        -0.429842         1.536682
 H        -2.316227         1.090953        -0.967211
 H        -1.233400        -1.429480        -1.848235
 H         0.164393        -0.196619        -1.643562
 H        -0.763998        -3.290580         0.031559
 H         1.010659        -2.704270        -0.192902
 H         0.349847        -2.904931         1.512044
