19
Iteration:   890charge 0 multiplicity 1
 C        -3.192274        -1.504398         0.804112
 C        -1.782296        -0.716415         0.954133
 C        -1.783091         0.423350        -0.134598
 C        -1.314355        -0.538934        -1.149832
 C        -0.585858        -1.245825         0.104960
 C         0.090098        -2.612785         0.175185
 C         0.330206        -0.068321         0.359848
 O         1.507585         0.088788         0.595670
 O        -0.441537         1.011008         0.201588
 H        -3.602134        -1.908075         1.748159
 H        -3.941311        -0.762441         0.592216
 H        -3.001273        -2.170660        -0.048808
 H        -1.471618        -0.498302         1.988620
 H        -2.536645         1.136590        -0.351789
 H        -2.093988        -1.171015        -1.632596
 H        -0.728875         0.009543        -1.883917
 H        -0.276289        -3.247811         0.997180
 H         0.005206        -3.214911        -0.786642
 H         1.140381        -2.276571         0.274319
