19
Iteration:  1592
 C        -3.116348        -1.691315         0.280392
 C        -1.919607        -0.777322         0.523673
 C        -1.662900         0.409635        -0.419918
 C        -0.898123        -0.533611        -1.298775
 C        -0.501391        -1.176514         0.110835
 C        -0.104676        -2.661699         0.450779
 C         0.296815         0.070928         0.623851
 O         1.361452         0.103181         1.188933
 O        -0.547750         1.164729         0.355656
 H        -2.898593        -2.257558        -0.593501
 H        -3.187100        -2.464157         1.099913
 H        -3.998244        -1.165890        -0.036837
 H        -1.892903        -0.405744         1.600380
 H        -2.410345         1.147247        -0.782569
 H        -1.755209        -1.074955        -1.873530
 H        -0.125057        -0.332622        -2.022162
 H         0.894789        -3.015764         0.101787
 H        -0.195430        -2.727316         1.600878
 H        -0.881165        -3.324669        -0.015352
