19
Iteration:  4580
 C        -2.930323        -1.803760         0.144393
 C        -1.941406        -0.803629         0.611449
 C        -1.768318         0.444460        -0.207159
 C        -0.989587        -0.411841        -1.337158
 C        -0.485531        -1.122753        -0.019757
 C         0.140244        -2.577598        -0.011540
 C         0.239463         0.047917         0.689741
 O         1.239979         0.040479         1.365401
 O        -0.602342         1.121515         0.553082
 H        -2.922095        -2.867366         0.529641
 H        -3.900885        -1.295575         0.516294
 H        -3.149568        -1.983206        -0.937402
 H        -2.002566        -0.759260         1.796687
 H        -2.643469         1.102816        -0.278948
 H        -1.725209        -0.934226        -1.898347
 H        -0.197737        -0.001628        -1.993043
 H         0.030452        -3.278154        -0.805413
 H         1.207734        -2.430521         0.139718
 H        -0.386086        -3.074260         0.851642
