19
Iteration:  2190charge 0 multiplicity 1
 C        -3.061238        -1.657274        -0.029633
 C        -1.959602        -0.634217         0.455105
 C        -1.560730         0.460075        -0.515083
 C        -0.892326        -0.716705        -1.435454
 C        -0.508175        -1.241006         0.121033
 C         0.034897        -2.539892         0.662697
 C         0.211028        -0.048106         0.713139
 O         1.036177         0.164071         1.593955
 O        -0.411277         1.089106         0.184436
 H        -2.821705        -2.146745        -0.987949
 H        -3.339115        -2.403339         0.835510
 H        -4.024484        -1.135306        -0.305417
 H        -2.075433        -0.516621         1.542002
 H        -2.275500         1.299540        -0.723292
 H        -1.425250        -1.457043        -1.946341
 H        -0.079795        -0.312096        -2.058008
 H        -0.220684        -3.351860         0.019516
 H         1.108175        -2.481387         0.888422
 H        -0.325283        -2.677432         1.666656
