19
Iteration:   137
 C        -2.962531        -1.508981         1.570458
 C        -1.717914        -0.694026         1.208629
 C        -1.768111         0.466615         0.056571
 C        -1.439610        -0.480216        -1.178823
 C        -0.652191        -1.232181         0.057246
 C        -0.012098        -2.590906        -0.091374
 C         0.283010        -0.052947         0.114648
 O         1.471983        -0.082982         0.010189
 O        -0.382868         1.069294         0.160787
 H        -2.810326        -2.078859         2.533049
 H        -3.911323        -0.899764         1.848823
 H        -3.219598        -2.328169         0.849833
 H        -1.233434        -0.277746         2.110177
 H        -2.550099         1.215397         0.005518
 H        -2.375835        -1.077239        -1.511858
 H        -0.730163        -0.015785        -1.979284
 H        -0.891841        -3.247345        -0.304857
 H         0.691894        -2.660685        -0.951148
 H         0.537855        -2.965989         0.807459
