19
Iteration:  2794charge 0 multiplicity 1
 C        -3.157289        -1.579200        -0.000591
 C        -1.931655        -0.812036         0.454862
 C        -1.610705         0.318857        -0.587676
 C        -0.712193        -0.801740        -1.305721
 C        -0.457173        -1.207953         0.197069
 C        -0.005710        -2.671026         0.549100
 C         0.166932         0.182020         0.759481
 O         1.152083         0.277673         1.503776
 O        -0.547691         1.153143         0.246939
 H        -3.035754        -2.639652        -0.269343
 H        -3.830742        -1.489196         0.790982
 H        -3.635812        -1.098368        -0.829949
 H        -2.053474        -0.645654         1.604685
 H        -2.361076         0.970977        -0.979123
 H        -1.343063        -1.518241        -1.805591
 H         0.077848        -0.330061        -2.046746
 H        -0.470156        -3.432660        -0.094747
 H         1.146077        -2.600992         0.235730
 H         0.014776        -2.907007         1.635810
