19
Iteration:  3642charge 0 multiplicity 1
 C        -3.114013        -1.799878         0.147182
 C        -1.973363        -0.906549         0.583164
 C        -1.668272         0.467785        -0.251774
 C        -0.921107        -0.316151        -1.287441
 C        -0.531697        -1.152836        -0.008481
 C         0.179317        -2.440487         0.251731
 C         0.229589        -0.019252         0.630054
 O         1.321195        -0.013154         1.189626
 O        -0.639038         1.056873         0.536087
 H        -4.115957        -1.447261         0.389077
 H        -3.234015        -1.865856        -0.879031
 H        -2.975826        -2.785473         0.607277
 H        -2.053381        -0.623840         1.659402
 H        -2.421728         1.208382        -0.515847
 H        -1.679336        -0.844012        -1.914254
 H        -0.201395         0.242531        -1.825112
 H         1.294672        -2.370564         0.391818
 H        -0.191221        -2.667189         1.292903
 H        -0.054239        -3.203706        -0.542748
