19
Iteration:  2284
 C        -3.254477        -1.552486        -0.098137
 C        -2.036324        -0.743241         0.435341
 C        -1.527691         0.280472        -0.581475
 C        -0.598727        -0.681471        -1.227800
 C        -0.534820        -1.190158         0.276684
 C         0.018040        -2.563877         0.671319
 C         0.218155         0.049407         0.731226
 O         1.237604         0.147769         1.366679
 O        -0.625949         1.095224         0.286997
 H        -3.206466        -1.817804        -1.135283
 H        -3.427866        -2.395206         0.474829
 H        -4.188968        -1.001394         0.009839
 H        -2.291682        -0.200647         1.363792
 H        -2.350612         0.871878        -1.106188
 H        -1.094547        -1.391990        -1.920719
 H         0.290786        -0.156766        -1.708274
 H        -0.657149        -3.352889         0.327024
 H         1.021448        -2.685437         0.105134
 H         0.394325        -2.601672         1.696070
