19
Iteration:  4396charge 0 multiplicity 1
 C        -3.124064        -1.860744        -0.031579
 C        -1.989605        -0.908583         0.567641
 C        -1.727761         0.479680        -0.150543
 C        -0.860222        -0.235433        -1.184549
 C        -0.498609        -1.152518         0.034110
 C         0.121553        -2.464510         0.172502
 C         0.242355        -0.053146         0.709450
 O         1.395221         0.100311         1.076447
 O        -0.703791         1.003167         0.659782
 H        -3.103244        -2.787555         0.629231
 H        -4.132731        -1.384484         0.116248
 H        -2.929331        -2.299951        -1.025834
 H        -1.911246        -0.766208         1.636554
 H        -2.428955         1.217097        -0.497063
 H        -1.524977        -0.863203        -1.754298
 H        -0.131398         0.383333        -1.734109
 H        -0.432496        -3.281314        -0.402143
 H         1.084027        -2.429947        -0.360809
 H         0.169326        -2.761020         1.262024
