19
Iteration:  2628
 C        -3.264667        -1.482085         0.217233
 C        -1.984407        -0.710246         0.463353
 C        -1.529474         0.311360        -0.586669
 C        -0.704276        -0.764400        -1.282861
 C        -0.494559        -1.281572         0.079270
 C         0.207585        -2.542310         0.347403
 C         0.151003         0.015686         0.760415
 O         0.942206         0.222752         1.675731
 O        -0.430503         1.067524         0.111475
 H        -3.413271        -1.853425        -0.757872
 H        -3.185741        -2.340050         0.889870
 H        -4.162993        -1.021773         0.489250
 H        -2.181944        -0.207090         1.467260
 H        -2.337001         0.956097        -1.115246
 H        -1.102569        -1.431242        -2.066803
 H         0.179220        -0.304142        -1.778272
 H        -0.209035        -3.444374        -0.281019
 H         1.269976        -2.393256         0.186471
 H         0.062772        -2.821041         1.443648
