19
Iteration:  3698
 C        -3.074394        -1.678155        -0.040850
 C        -2.019077        -0.862126         0.611022
 C        -1.773776         0.472153        -0.212156
 C        -0.876544        -0.575805        -1.234706
 C        -0.516428        -1.196820         0.195641
 C         0.081776        -2.587768         0.077388
 C         0.244478         0.029162         0.757760
 O         1.423384         0.269543         1.032002
 O        -0.631716         1.049762         0.681216
 H        -3.812986        -1.090811        -0.531635
 H        -2.674105        -2.508492        -0.498684
 H        -3.720822        -2.172872         0.695861
 H        -2.205648        -0.594883         1.685820
 H        -2.599424         1.187072        -0.239841
 H        -1.412698        -1.376691        -1.692959
 H        -0.045031        -0.240751        -1.821941
 H         1.149140        -2.680124        -0.334474
 H         0.092001        -3.153448         1.023335
 H        -0.539420        -3.336026        -0.492144
