19
Iteration:  4263charge 0 multiplicity 1
 C        -3.038286        -1.798929         0.379403
 C        -1.952183        -0.812997         0.622043
 C        -1.735484         0.501665        -0.250419
 C        -1.006799        -0.396853        -1.327331
 C        -0.417569        -1.146100        -0.073131
 C         0.218115        -2.475091        -0.121695
 C         0.212095        -0.062035         0.647843
 O         1.138751        -0.002871         1.454736
 O        -0.554844         1.126958         0.447497
 H        -2.773698        -2.724098         0.955658
 H        -4.072232        -1.530509         0.623124
 H        -3.121193        -2.143675        -0.720947
 H        -1.849219        -0.689947         1.709561
 H        -2.531798         1.280231        -0.269232
 H        -1.531936        -1.189093        -1.894793
 H        -0.392494         0.168191        -2.017829
 H         1.060653        -2.443607        -0.870600
 H         0.669459        -2.709657         0.919408
 H        -0.476980        -3.376781        -0.335967
