19
Iteration:   980charge 0 multiplicity 1
 C        -3.000434        -1.707081         0.991784
 C        -1.810566        -0.676063         0.772904
 C        -1.682041         0.430947        -0.270529
 C        -1.179197        -0.617259        -1.297680
 C        -0.585546        -1.161775         0.015802
 C        -0.127782        -2.536840         0.047068
 C         0.303027         0.016538         0.491034
 O         1.466521         0.001345         0.800717
 O        -0.478330         1.156431         0.275336
 H        -3.269244        -1.725893         2.056096
 H        -3.966153        -1.371165         0.641201
 H        -2.954307        -2.705856         0.560692
 H        -1.663448        -0.355114         1.801581
 H        -2.435494         1.206267        -0.475038
 H        -2.116173        -1.063977        -1.684361
 H        -0.485606        -0.344350        -2.124020
 H         0.831600        -2.696572        -0.451107
 H        -0.263185        -3.059805         1.070004
 H        -0.796050        -3.048039        -0.593093
