19
Iteration:  2178
 C        -3.139344        -1.585219         0.020238
 C        -2.031559        -0.683374         0.429463
 C        -1.582687         0.351219        -0.600673
 C        -0.819800        -0.669864        -1.311594
 C        -0.511436        -1.202227         0.094592
 C         0.114810        -2.514043         0.581858
 C         0.227029         0.018421         0.769945
 O         1.050654         0.094588         1.641634
 O        -0.423407         1.062858         0.160469
 H        -2.848689        -2.221730        -0.848273
 H        -3.322673        -2.414214         0.836821
 H        -4.113871        -1.021268        -0.141565
 H        -2.163572        -0.097597         1.359145
 H        -2.219909         1.067384        -1.242167
 H        -1.573499        -1.241357        -1.753535
 H        -0.066092        -0.419247        -2.069822
 H        -0.119547        -3.430988         0.140401
 H         1.227794        -2.399527         0.541890
 H        -0.234720        -2.580930         1.588513
