19
Iteration:  4618charge 0 multiplicity 1
 C        -3.142524        -1.836194         0.051927
 C        -1.985230        -0.894909         0.540229
 C        -1.762893         0.414188        -0.164553
 C        -0.841963        -0.354074        -1.251294
 C        -0.471300        -1.223036         0.162798
 C         0.096629        -2.605100        -0.036750
 C         0.260196        -0.031124         0.815022
 O         1.375137         0.231870         1.109343
 O        -0.666500         1.113704         0.647788
 H        -3.386141        -2.494917         0.876666
 H        -3.978558        -1.080024         0.224462
 H        -3.129284        -2.184767        -0.993039
 H        -2.302741        -0.702523         1.564668
 H        -2.520437         1.169081        -0.433273
 H        -1.139215        -0.946477        -2.209198
 H         0.025225         0.230467        -1.648339
 H        -0.196621        -3.252699        -0.907560
 H         1.195108        -2.481601         0.145873
 H        -0.053623        -3.080853         0.913612
