19
Iteration:  2830
 C        -3.069420        -1.695882         0.248785
 C        -2.007103        -0.693865         0.430205
 C        -1.601948         0.441227        -0.626739
 C        -0.691985        -0.662650        -1.368136
 C        -0.522394        -1.218809         0.071788
 C         0.074261        -2.473297         0.509562
 C         0.106714         0.003602         0.717235
 O         0.946433         0.110909         1.630015
 O        -0.415790         1.063373         0.135347
 H        -2.755394        -2.633992         0.703419
 H        -3.924774        -1.422119         0.843111
 H        -3.417172        -1.895991        -0.779009
 H        -2.131238        -0.214475         1.455352
 H        -1.935731         1.308507        -1.169798
 H        -1.215834        -1.423328        -2.043723
 H         0.119053        -0.274461        -1.936624
 H        -0.284174        -3.463584         0.150711
 H         1.217821        -2.297457         0.151809
 H         0.055336        -2.535982         1.632831
