19
Iteration:   394
 C        -2.938343        -1.479790         1.223530
 C        -1.773367        -0.640737         1.039940
 C        -1.747116         0.506623        -0.161464
 C        -1.450389        -0.650832        -1.181911
 C        -0.631986        -1.226495         0.043767
 C         0.016549        -2.545324         0.173324
 C         0.355980        -0.074831         0.240804
 O         1.545635        -0.053177         0.218592
 O        -0.517081         1.067242         0.271448
 H        -3.438194        -1.076521         2.167018
 H        -3.660125        -1.431974         0.445071
 H        -2.652492        -2.535056         1.434272
 H        -1.348796        -0.208979         1.969590
 H        -2.590012         1.231981        -0.345643
 H        -2.342613        -1.301282        -1.379398
 H        -1.049764        -0.517339        -2.159463
 H        -0.774181        -3.248774         0.419400
 H         0.286418        -2.863891        -0.824904
 H         0.837382        -2.601527         0.899370
