19
Iteration:  2351
 C        -3.130251        -1.652560         0.156448
 C        -2.013935        -0.613205         0.397188
 C        -1.498503         0.330909        -0.603221
 C        -0.646941        -0.705343        -1.363308
 C        -0.492650        -1.158229         0.155069
 C        -0.000238        -2.456863         0.482210
 C         0.108475         0.002113         0.824022
 O         1.018169         0.068018         1.632317
 O        -0.486752         1.071915         0.120001
 H        -3.010203        -2.102980        -0.802456
 H        -3.035755        -2.323604         0.937036
 H        -4.160920        -1.375181         0.268440
 H        -2.096343        -0.052718         1.355906
 H        -2.120904         1.160315        -1.087874
 H        -1.163946        -1.430382        -1.945906
 H         0.272757        -0.448190        -1.981172
 H        -0.805194        -3.159006         0.470680
 H         0.881626        -2.735801        -0.235316
 H         0.503716        -2.394150         1.452793
