19
Iteration:  4456
 C        -3.072649        -1.852168        -0.033110
 C        -2.003636        -0.872709         0.666289
 C        -1.776342         0.390086        -0.141155
 C        -0.975250        -0.388473        -1.243886
 C        -0.541825        -1.146534         0.015217
 C         0.179702        -2.507077        -0.009085
 C         0.304101         0.038903         0.713640
 O         1.287889         0.079425         1.311593
 O        -0.549926         1.136009         0.591563
 H        -3.353765        -2.532166         0.753370
 H        -4.021300        -1.334525        -0.180810
 H        -2.801780        -2.396174        -0.962434
 H        -2.240428        -0.838482         1.755738
 H        -2.447131         1.275285        -0.336937
 H        -1.501570        -0.967706        -2.054402
 H        -0.252544         0.285681        -1.761819
 H        -0.540196        -3.375747         0.102460
 H         0.648041        -2.585801        -1.045116
 H         1.021397        -2.580098         0.727002
