19
Iteration:  4578charge 0 multiplicity 1
 C        -2.916454        -1.800196         0.149773
 C        -1.938548        -0.805551         0.601564
 C        -1.770153         0.444658        -0.224338
 C        -0.996745        -0.388033        -1.322187
 C        -0.492517        -1.119032        -0.019427
 C         0.159872        -2.576800         0.005193
 C         0.193128         0.057928         0.691165
 O         1.228509         0.018036         1.372630
 O        -0.580302         1.112526         0.540797
 H        -2.881629        -2.807753         0.552917
 H        -3.794312        -1.367877         0.603286
 H        -3.129360        -1.965907        -0.923986
 H        -1.990564        -0.702092         1.710532
 H        -2.634677         1.127314        -0.219228
 H        -1.763484        -0.929648        -1.887241
 H        -0.262102        -0.026106        -2.097693
 H         0.005668        -3.259409        -0.833702
 H         1.280119        -2.439190         0.105760
 H        -0.377549        -3.130550         0.850134
