19
Iteration:  3665charge 0 multiplicity 1
 C        -3.187289        -1.741476         0.075351
 C        -2.041892        -0.882914         0.534024
 C        -1.783114         0.395422        -0.244096
 C        -0.843550        -0.339031        -1.250097
 C        -0.527747        -1.179168         0.149329
 C         0.172247        -2.609681         0.198387
 C         0.246330         0.029448         0.741540
 O         1.430714         0.120128         1.038678
 O        -0.631891         1.087804         0.600338
 H        -4.108574        -1.233558        -0.158739
 H        -3.047304        -2.236166        -0.832519
 H        -3.327347        -2.454016         0.891525
 H        -2.228992        -0.709459         1.637472
 H        -2.631231         1.066021        -0.227130
 H        -1.284709        -1.015974        -2.020496
 H        -0.012322         0.193326        -1.629427
 H         1.297723        -2.455434         0.196787
 H        -0.041234        -2.998158         1.193352
 H        -0.128589        -3.213219        -0.679471
