19
Iteration:   171
 C        -2.837396        -1.549156         1.379746
 C        -1.714870        -0.651433         1.043088
 C        -1.814213         0.544698         0.029545
 C        -1.606661        -0.547106        -1.074230
 C        -0.604545        -1.175021        -0.054353
 C        -0.086850        -2.626399         0.052538
 C         0.363023        -0.050973         0.031810
 O         1.548838        -0.075649         0.086450
 O        -0.399776         1.081129         0.294631
 H        -2.358648        -2.463087         1.801653
 H        -3.422020        -1.123432         2.288781
 H        -3.615726        -1.858986         0.637776
 H        -1.291170        -0.332082         2.020347
 H        -2.492872         1.353273         0.142768
 H        -2.510002        -1.219407        -1.155048
 H        -1.300359        -0.451520        -2.184281
 H        -0.734236        -3.095419         0.883392
 H        -0.230997        -3.249889        -0.856268
 H         0.893715        -2.643783         0.416421
