19
Iteration:  1122charge 0 multiplicity 1
 C        -3.070374        -1.626599         0.666336
 C        -1.863068        -0.716748         0.782013
 C        -1.750288         0.448639        -0.220551
 C        -1.181731        -0.497680        -1.199681
 C        -0.546162        -1.212168         0.091968
 C        -0.090787        -2.648927         0.232123
 C         0.374170        -0.016343         0.444127
 O         1.523092         0.057073         0.804930
 O        -0.517664         1.123402         0.232088
 H        -2.739416        -2.675016         0.457420
 H        -3.489928        -1.822039         1.679949
 H        -3.852594        -1.321888        -0.049332
 H        -1.545685        -0.440083         1.781333
 H        -2.511021         1.270947        -0.303943
 H        -1.861757        -1.153340        -1.686701
 H        -0.603605         0.031230        -2.017432
 H        -0.393147        -2.863075         1.277981
 H        -0.783078        -3.409291        -0.357710
 H         0.933150        -2.924305         0.092412
