19
Iteration:   897
 C        -3.156975        -1.442159         0.795404
 C        -1.836195        -0.736057         0.978346
 C        -1.788272         0.413690        -0.083098
 C        -1.353165        -0.578142        -1.200683
 C        -0.530246        -1.259674         0.100616
 C         0.110751        -2.626608         0.137890
 C         0.356298        -0.026463         0.315028
 O         1.516917         0.054197         0.635005
 O        -0.475592         1.053961         0.210563
 H        -3.534998        -1.983402         1.649204
 H        -3.930079        -0.711302         0.370922
 H        -3.083520        -2.240581         0.022762
 H        -1.489158        -0.456342         1.991461
 H        -2.586791         1.203765        -0.245887
 H        -2.143733        -1.153227        -1.625453
 H        -0.828108        -0.050632        -2.023121
 H        -0.197743        -3.049494         1.109186
 H        -0.058230        -3.390017        -0.561507
 H         1.264386        -2.499462         0.280111
