19
Iteration:  1978charge 0 multiplicity 1
 C        -3.258290        -1.577241        -0.123401
 C        -1.976904        -0.750849         0.526261
 C        -1.630982         0.404093        -0.517558
 C        -0.737167        -0.795819        -1.177291
 C        -0.446035        -1.224057         0.243458
 C         0.064887        -2.665071         0.490150
 C         0.224128         0.119517         0.775612
 O         1.180095         0.232231         1.536356
 O        -0.493448         1.122783         0.121034
 H        -3.174128        -1.680000        -1.249377
 H        -3.592058        -2.515192         0.340314
 H        -4.035006        -0.731780         0.028370
 H        -2.244213        -0.427798         1.534834
 H        -2.301314         1.075908        -1.007404
 H        -1.469339        -1.563049        -1.535075
 H        -0.030520        -0.557228        -1.902025
 H         0.159624        -3.225357        -0.424246
 H         1.010281        -2.584551         0.930181
 H        -0.493943        -3.251547         1.211681
