19
Iteration:  3622charge 0 multiplicity 1
 C        -2.985468        -1.789500         0.158123
 C        -1.895140        -0.782517         0.544931
 C        -1.746703         0.530742        -0.212585
 C        -1.025175        -0.486130        -1.398570
 C        -0.534443        -1.154220        -0.052929
 C         0.154070        -2.490289         0.187484
 C         0.189308        -0.004499         0.690619
 O         1.216601        -0.042145         1.345301
 O        -0.548498         1.137955         0.516891
 H        -3.842365        -1.712657         0.861343
 H        -3.433636        -1.723980        -0.828490
 H        -2.564382        -2.807535         0.347460
 H        -1.832203        -0.602847         1.664509
 H        -2.458431         1.313468        -0.448484
 H        -1.774804        -1.093721        -1.936617
 H        -0.249427        -0.019111        -2.038499
 H         1.245958        -2.365259        -0.002711
 H         0.147777        -2.820808         1.201017
 H        -0.123455        -3.243605        -0.566464
