19
Iteration:  2707charge 0 multiplicity 1
 C        -3.007716        -1.716955        -0.026054
 C        -2.103290        -0.673088         0.386154
 C        -1.648564         0.387684        -0.602967
 C        -0.646307        -0.549334        -1.343903
 C        -0.525550        -1.233482         0.155492
 C        -0.051024        -2.502250         0.791431
 C         0.222073         0.013117         0.740132
 O         1.268768         0.044184         1.338720
 O        -0.652987         1.102404         0.305329
 H        -3.026298        -2.042811        -1.081714
 H        -2.828626        -2.590560         0.524883
 H        -4.005425        -1.459301         0.304898
 H        -2.340450        -0.319248         1.456962
 H        -2.399782         1.047040        -1.017708
 H        -1.161952        -0.998133        -2.134016
 H         0.225134         0.114461        -1.609620
 H        -0.616905        -3.459852         0.631041
 H         1.086365        -2.807597         0.590040
 H         0.022394        -2.199535         1.867793
