19
Iteration:  2099
 C        -3.174283        -1.629856        -0.027910
 C        -1.914806        -0.779518         0.410683
 C        -1.510405         0.364931        -0.526084
 C        -0.718363        -0.747880        -1.318328
 C        -0.456441        -1.200691         0.092961
 C        -0.072140        -2.593045         0.537629
 C         0.207264         0.140397         0.764010
 O         1.048799         0.198023         1.619681
 O        -0.483950         1.115290         0.226440
 H        -3.134152        -2.017147        -1.091334
 H        -3.229607        -2.429915         0.728902
 H        -4.062894        -0.923546         0.115436
 H        -2.039410        -0.571387         1.491201
 H        -2.022815         1.146930        -1.144438
 H        -1.383441        -1.317516        -1.967967
 H         0.095491        -0.313781        -1.852534
 H        -0.956119        -3.161933         0.728240
 H         0.530062        -3.209330        -0.118509
 H         0.521509        -2.522534         1.429875
