19
Iteration:  3832
 C        -3.140390        -1.747170         0.344536
 C        -1.933882        -0.838416         0.605746
 C        -1.665794         0.383680        -0.255477
 C        -0.968808        -0.442855        -1.244967
 C        -0.395233        -1.184776        -0.034939
 C         0.167130        -2.538704        -0.289094
 C         0.311609         0.037663         0.671491
 O         1.145065         0.160518         1.566124
 O        -0.607023         1.032292         0.452582
 H        -2.751265        -2.557133        -0.220955
 H        -3.582166        -2.083676         1.288919
 H        -3.804955        -1.141787        -0.238935
 H        -1.701546        -0.560514         1.663223
 H        -2.450044         1.118345        -0.541260
 H        -1.685308        -1.091207        -1.710470
 H        -0.317674         0.290536        -1.836879
 H         1.220284        -2.669011        -0.844083
 H         0.236203        -3.123094         0.649944
 H        -0.583901        -2.961176        -1.013585
