19
Iteration:  1291
 C        -3.129268        -1.695175         0.518843
 C        -1.924173        -0.732240         0.717757
 C        -1.777409         0.424037        -0.297757
 C        -1.146365        -0.539151        -1.315573
 C        -0.574637        -1.161088         0.086682
 C        -0.041687        -2.572706         0.354860
 C         0.371316         0.010790         0.452091
 O         1.468005         0.035689         0.973763
 O        -0.406993         1.150544         0.313910
 H        -3.755723        -1.366701        -0.274803
 H        -2.733786        -2.619225         0.181995
 H        -3.605184        -1.893936         1.453666
 H        -1.742575        -0.563012         1.759509
 H        -2.478933         1.255297        -0.437579
 H        -1.938042        -1.250089        -1.682553
 H        -0.592831        -0.182625        -2.195508
 H        -0.801000        -3.129601         0.960739
 H         0.170304        -3.070931        -0.559524
 H         0.868283        -2.628590         1.019062
