19
Iteration:   660charge 0 multiplicity 1
 C        -3.062503        -1.748327         0.980344
 C        -1.847299        -0.638200         1.021847
 C        -1.754444         0.429964        -0.084885
 C        -1.404931        -0.556053        -1.182535
 C        -0.636941        -1.136555         0.136754
 C        -0.127499        -2.515946         0.210595
 C         0.365031         0.014674         0.297419
 O         1.572903        -0.026513         0.457846
 O        -0.316344         1.083186         0.065941
 H        -3.273172        -2.203600         1.936876
 H        -4.011229        -1.152067         0.809500
 H        -2.864560        -2.539647         0.235940
 H        -1.538928        -0.625643         2.079353
 H        -2.389298         1.360134        -0.207075
 H        -2.111798        -1.214779        -1.652269
 H        -0.724202         0.093039        -1.842335
 H        -0.481785        -2.887913         1.139444
 H        -0.364896        -3.186164        -0.637114
 H         0.982072        -2.407622         0.208866
