19
Iteration:  1623
 C        -3.146494        -1.582299         0.252371
 C        -1.936390        -0.715011         0.618938
 C        -1.655514         0.375767        -0.355403
 C        -0.891660        -0.602499        -1.239977
 C        -0.530514        -1.214392         0.152993
 C        -0.020172        -2.595430         0.325573
 C         0.304082        -0.016944         0.610429
 O         1.244960         0.218115         1.304256
 O        -0.477965         1.019821         0.191087
 H        -3.171357        -1.431448        -0.828574
 H        -3.168099        -2.696886         0.315557
 H        -4.083371        -1.312166         0.713975
 H        -1.919586        -0.467429         1.699276
 H        -2.390863         1.033115        -0.753648
 H        -1.662424        -1.253212        -1.788769
 H        -0.030545        -0.385826        -1.841166
 H         0.466229        -2.946741        -0.538011
 H         0.764620        -2.646298         1.133013
 H        -0.864789        -3.147056         0.627913
