19
Iteration:  1497
 C        -3.236592        -1.437924         0.292006
 C        -1.885697        -0.775543         0.678434
 C        -1.684511         0.405850        -0.341018
 C        -1.097175        -0.609604        -1.320949
 C        -0.449648        -1.282205         0.107437
 C         0.097127        -2.681421         0.382324
 C         0.357306         0.010999         0.583351
 O         1.345020         0.281514         1.239826
 O        -0.530491         0.950661         0.222405
 H        -3.084874        -2.503305         0.045863
 H        -3.938029        -1.580308         1.137656
 H        -3.625538        -1.107991        -0.689173
 H        -1.968134        -0.512208         1.733555
 H        -2.524636         1.173236        -0.500105
 H        -1.729789        -1.232451        -1.935380
 H        -0.341570        -0.180029        -1.990692
 H        -0.370643        -3.227025         1.212732
 H        -0.150608        -3.102558        -0.509372
 H         1.187557        -2.663002         0.561542
