19
Iteration:  3704
 C        -3.076379        -1.677824        -0.041659
 C        -1.998905        -0.827711         0.582857
 C        -1.784096         0.382412        -0.149374
 C        -0.890328        -0.538098        -1.223116
 C        -0.543108        -1.224878         0.192773
 C         0.089155        -2.605790         0.082235
 C         0.282519         0.067903         0.759952
 O         1.438393         0.242388         1.064928
 O        -0.647118         1.066607         0.647455
 H        -3.760058        -1.077266        -0.749380
 H        -2.586817        -2.646193        -0.494836
 H        -3.602567        -2.094417         0.844963
 H        -2.272159        -0.492260         1.574753
 H        -2.561061         1.150660        -0.336645
 H        -1.506392        -1.282650        -1.855958
 H        -0.190909        -0.102509        -2.046823
 H         1.029731        -2.637093        -0.425835
 H         0.167287        -3.043842         1.128828
 H        -0.632621        -3.284335        -0.423109
