19
Iteration:     8
 C        -2.796858        -1.585869         1.582500
 C        -1.636402        -0.622435         1.137625
 C        -1.796734         0.544760         0.098939
 C        -1.704066        -0.579532        -1.048946
 C        -0.670835        -1.193257        -0.011939
 C        -0.096154        -2.632289        -0.091690
 C         0.346970        -0.063311         0.075480
 O         1.550039        -0.051366        -0.018885
 O        -0.390517         1.067685         0.181169
 H        -3.256282        -0.865477         2.265696
 H        -3.493836        -1.684347         0.704278
 H        -2.411751        -2.457748         2.093857
 H        -0.947589        -0.389343         2.013340
 H        -2.446561         1.423043         0.183622
 H        -2.686583        -1.033742        -1.270925
 H        -1.451065        -0.307689        -2.095160
 H         0.788740        -3.007874         0.636892
 H        -0.955554        -3.307743         0.056416
 H         0.258517        -2.713369        -1.097305
