19
Iteration:  4547charge 0 multiplicity 1
 C        -3.018543        -1.939887         0.302014
 C        -2.018766        -0.815778         0.644055
 C        -1.719173         0.506406        -0.294508
 C        -0.954732        -0.328220        -1.358690
 C        -0.561361        -1.090337        -0.127792
 C         0.236122        -2.399855        -0.033247
 C         0.288000        -0.006315         0.690954
 O         1.141727        -0.142231         1.507821
 O        -0.555103         1.132801         0.402295
 H        -2.710296        -2.950272         0.678639
 H        -3.857818        -1.706027         1.002627
 H        -3.381168        -1.887028        -0.766752
 H        -1.944649        -0.578073         1.791969
 H        -2.468870         1.302358        -0.360434
 H        -1.623298        -0.779309        -2.069106
 H        -0.140866         0.086181        -1.940783
 H         0.012431        -3.172991        -0.724953
 H         1.310681        -2.192604        -0.012853
 H         0.079015        -2.748298         1.017544
