19
Iteration:  2590
 C        -3.208776        -1.549757         0.191894
 C        -1.984421        -0.630686         0.352201
 C        -1.580959         0.329494        -0.635195
 C        -0.741869        -0.704651        -1.363396
 C        -0.413541        -1.207459         0.044848
 C         0.197830        -2.461429         0.536340
 C         0.135859        -0.002881         0.726098
 O         1.002586         0.008488         1.622515
 O        -0.523824         1.087027         0.218245
 H        -3.013639        -2.470750        -0.455537
 H        -3.351758        -1.956540         1.204053
 H        -4.170252        -0.986080        -0.112334
 H        -1.972250        -0.286064         1.345619
 H        -2.194105         1.089704        -0.984478
 H        -1.380732        -1.385161        -1.938443
 H         0.072368        -0.214053        -1.899461
 H        -0.353410        -3.298812         0.384505
 H         1.241191        -2.719785         0.252361
 H         0.291767        -2.236636         1.562974
