19
Iteration:  1036charge 0 multiplicity 1
 C        -3.135968        -1.562150         0.670538
 C        -1.838125        -0.750776         0.932429
 C        -1.766945         0.452538        -0.081205
 C        -1.227211        -0.596260        -1.168431
 C        -0.625201        -1.189901         0.112289
 C         0.074886        -2.552880         0.115855
 C         0.323130        -0.003395         0.404336
 O         1.468798        -0.012584         0.806590
 O        -0.434030         1.098092         0.102539
 H        -3.306996        -2.368312         1.348163
 H        -3.839872        -0.722691         0.823093
 H        -3.373958        -1.904284        -0.302311
 H        -1.708668        -0.736558         2.013494
 H        -2.507919         1.317562        -0.103357
 H        -1.969206        -1.343782        -1.348423
 H        -0.690464        -0.314105        -2.131643
 H         0.008262        -3.104786        -0.829159
 H         1.176720        -2.292706         0.232975
 H        -0.300032        -3.128141         0.943378
