19
Iteration:  1805charge 0 multiplicity 1
 C        -3.288579        -1.550314         0.061073
 C        -2.007805        -0.721196         0.437771
 C        -1.593415         0.413742        -0.532386
 C        -0.712543        -0.641364        -1.353744
 C        -0.501188        -1.234639         0.143943
 C         0.122312        -2.535365         0.740458
 C         0.250000        -0.017006         0.630156
 O         1.284686         0.056417         1.218660
 O        -0.648056         1.112406         0.403501
 H        -2.996685        -2.572571         0.188426
 H        -4.054937        -1.380446         0.743534
 H        -3.630908        -1.400168        -0.938320
 H        -2.092983        -0.460216         1.508967
 H        -2.173267         1.226909        -0.814274
 H        -1.494003        -1.175016        -1.975642
 H        -0.002252        -0.338352        -2.058071
 H         0.095532        -2.564650         1.850966
 H        -0.582365        -3.467791         0.521591
 H         1.207899        -2.795180         0.531240
