19
Iteration:  1336
 C        -3.269093        -1.576836         0.515520
 C        -2.017753        -0.656807         0.728675
 C        -1.711016         0.359376        -0.332811
 C        -0.982582        -0.612862        -1.256190
 C        -0.498949        -1.190207         0.122925
 C         0.152475        -2.565128         0.315187
 C         0.293857         0.035634         0.561610
 O         1.460855        -0.002056         0.899408
 O        -0.581392         1.065136         0.344061
 H        -4.059534        -0.820322         0.515901
 H        -3.415463        -2.079947        -0.379754
 H        -3.299978        -2.254837         1.366205
 H        -2.226216        -0.194450         1.689798
 H        -2.352482         1.175725        -0.754658
 H        -1.504833        -1.172318        -2.011979
 H        -0.121370        -0.098841        -1.797479
 H         0.842535        -2.707653         1.163221
 H        -0.609808        -3.364785         0.110975
 H         0.765393        -2.676655        -0.620161
