19
Iteration:  4789charge 0 multiplicity 1
 C        -3.035468        -1.768332         0.315996
 C        -1.862854        -0.812362         0.539758
 C        -1.683080         0.411922        -0.208372
 C        -0.972480        -0.377913        -1.276527
 C        -0.405757        -1.147560        -0.087572
 C         0.250935        -2.443325        -0.134981
 C         0.196312        -0.073432         0.698383
 O         1.074090        -0.047913         1.491533
 O        -0.630139         1.153903         0.447212
 H        -2.982772        -2.542862         1.080204
 H        -3.918941        -1.134892         0.567327
 H        -3.059016        -2.240635        -0.641931
 H        -1.815157        -0.749366         1.637431
 H        -2.475632         1.090769        -0.541943
 H        -1.704775        -0.935766        -1.874499
 H        -0.382233         0.185776        -2.000735
 H        -0.317930        -3.188830        -0.800579
 H         1.315239        -2.420966        -0.420999
 H         0.068153        -2.888714         0.872412
