19
Iteration:  2296charge 0 multiplicity 1
 C        -3.216687        -1.537239        -0.130199
 C        -1.980005        -0.804040         0.467605
 C        -1.664897         0.297605        -0.538392
 C        -0.743351        -0.676372        -1.270355
 C        -0.483647        -1.209508         0.227908
 C         0.041678        -2.452394         0.674225
 C         0.213768        -0.016919         0.751721
 O         1.215584         0.163171         1.447098
 O        -0.539642         1.047922         0.211487
 H        -3.064030        -1.719760        -1.166081
 H        -3.512079        -2.445648         0.288506
 H        -3.913919        -0.716678        -0.025951
 H        -2.217782        -0.518817         1.529135
 H        -2.099751         1.188481        -1.146878
 H        -1.042979        -1.487579        -1.902623
 H         0.202303        -0.179083        -1.708230
 H        -0.653765        -3.261707         0.716884
 H         0.955337        -2.776397         0.005798
 H         0.213198        -2.338024         1.731403
