19
Iteration:  4243
 C        -3.068792        -1.825125         0.271793
 C        -1.910228        -0.893065         0.650578
 C        -1.703133         0.408852        -0.214040
 C        -1.039358        -0.390437        -1.267548
 C        -0.505070        -1.167242         0.029968
 C         0.152105        -2.576070        -0.158598
 C         0.247131         0.042094         0.727792
 O         1.260246         0.133955         1.404232
 O        -0.576181         1.132668         0.428227
 H        -3.215103        -2.571576         1.051912
 H        -4.001460        -1.311365         0.228538
 H        -2.992546        -2.301438        -0.703395
 H        -1.855607        -0.664402         1.704894
 H        -2.459523         1.157854        -0.475049
 H        -1.785923        -0.556475        -2.036435
 H        -0.152686         0.008984        -1.831539
 H         1.170842        -2.402033        -0.666732
 H         0.343082        -3.145390         0.808699
 H        -0.382549        -3.325463        -0.820006
