19
Iteration:  3370
 C        -3.065778        -1.715082         0.163812
 C        -1.934952        -0.818534         0.600886
 C        -1.669737         0.493573        -0.292192
 C        -1.022522        -0.515553        -1.332720
 C        -0.530262        -1.178650        -0.038401
 C         0.204947        -2.399560         0.256827
 C         0.221470         0.008288         0.702863
 O         1.164165        -0.062596         1.482523
 O        -0.499848         1.080105         0.252699
 H        -3.789668        -1.073566        -0.452799
 H        -2.768438        -2.615056        -0.368691
 H        -3.507468        -2.183329         1.083690
 H        -1.919877        -0.553619         1.720425
 H        -2.424910         1.156918        -0.695224
 H        -1.982204        -1.067243        -1.649782
 H        -0.286704        -0.105088        -2.023190
 H         1.258046        -2.131135         0.291193
 H        -0.044581        -2.753138         1.224957
 H         0.084229        -3.114367        -0.578029
