19
Iteration:  4734charge 0 multiplicity 1
 C        -3.064282        -1.810069         0.325821
 C        -1.928009        -0.801658         0.550025
 C        -1.758879         0.510199        -0.316288
 C        -0.870435        -0.434841        -1.324559
 C        -0.387870        -1.107572        -0.035877
 C         0.167172        -2.519816        -0.155613
 C         0.225020        -0.035767         0.721334
 O         1.113602         0.044663         1.490656
 O        -0.608977         1.082633         0.558147
 H        -2.706557        -2.762933         0.764443
 H        -4.076329        -1.679612         0.803774
 H        -3.210601        -1.996399        -0.733938
 H        -1.938572        -0.679890         1.687124
 H        -2.308243         1.436828        -0.567930
 H        -1.552838        -1.017743        -1.950653
 H        -0.102203        -0.026424        -2.010296
 H        -0.739076        -3.088937        -0.516063
 H         0.860919        -2.460786        -1.003079
 H         0.787239        -3.024539         0.631520
