19
Iteration:  3342charge 0 multiplicity 1
 C        -3.088283        -1.712658         0.282134
 C        -1.930437        -0.758817         0.572722
 C        -1.726543         0.416827        -0.373616
 C        -0.900263        -0.489986        -1.298053
 C        -0.475329        -1.203160        -0.012499
 C         0.184381        -2.602265         0.123658
 C         0.224324         0.053173         0.677411
 O         1.026246         0.022781         1.581375
 O        -0.436034         1.156787         0.257613
 H        -4.066706        -1.266353         0.369080
 H        -2.941014        -2.229199        -0.680081
 H        -3.140598        -2.441288         1.110350
 H        -1.942636        -0.439974         1.602571
 H        -2.465820         1.120420        -0.852538
 H        -1.645945        -1.092943        -1.840781
 H        -0.243960        -0.009873        -2.044170
 H         1.138444        -2.459554        -0.449130
 H         0.492880        -2.818329         1.238184
 H        -0.399022        -3.332917        -0.483702
