19
Iteration:  1130
 C        -2.997152        -1.634264         0.631191
 C        -1.867225        -0.745147         0.888560
 C        -1.710843         0.511743        -0.222077
 C        -1.212355        -0.553444        -1.244104
 C        -0.585831        -1.196382         0.075894
 C        -0.122930        -2.643511         0.235783
 C         0.328489        -0.029432         0.436509
 O         1.463303         0.093126         0.825954
 O        -0.425492         1.124403         0.230578
 H        -2.569834        -2.629945         0.234457
 H        -3.574580        -1.844430         1.536128
 H        -3.875910        -1.413113        -0.056836
 H        -1.776815        -0.562449         1.989665
 H        -2.394906         1.329480        -0.415021
 H        -2.075252        -1.194980        -1.510156
 H        -0.631737        -0.253386        -2.122808
 H         0.037078        -2.974935         1.265040
 H        -0.879745        -3.318993        -0.220878
 H         0.852555        -2.786679        -0.199961
