19
Iteration:  2524
 C        -3.068095        -1.699852        -0.101420
 C        -2.030217        -0.734281         0.480169
 C        -1.576507         0.333493        -0.574807
 C        -0.715633        -0.657671        -1.239082
 C        -0.565016        -1.171428         0.290586
 C        -0.219452        -2.614859         0.607160
 C         0.288425         0.086629         0.768925
 O         1.291463         0.312359         1.359720
 O        -0.550584         1.030487         0.306504
 H        -2.729396        -2.015001        -1.129936
 H        -3.204896        -2.653985         0.420140
 H        -4.021787        -1.080151        -0.209108
 H        -2.212127        -0.331136         1.451101
 H        -2.088452         0.847546        -1.363831
 H        -1.114281        -1.413278        -1.864462
 H         0.212213        -0.125742        -1.582448
 H        -0.978011        -3.218610         0.260948
 H         0.656485        -2.933192        -0.006967
 H        -0.048209        -2.718754         1.641191
