19
Iteration:  2589
 C        -3.198177        -1.549085         0.188917
 C        -1.985532        -0.616532         0.348030
 C        -1.584521         0.323522        -0.616534
 C        -0.739451        -0.706083        -1.368631
 C        -0.424556        -1.206169         0.043162
 C         0.190818        -2.455410         0.536342
 C         0.138983        -0.007290         0.723974
 O         1.007730         0.010091         1.623045
 O        -0.528959         1.080179         0.215175
 H        -2.977398        -2.472860        -0.464423
 H        -3.352518        -1.956074         1.207589
 H        -4.190935        -1.008339        -0.128492
 H        -1.978635        -0.292621         1.369980
 H        -2.206155         1.104854        -0.987766
 H        -1.351152        -1.369928        -1.938808
 H         0.110761        -0.228824        -1.918857
 H        -0.367589        -3.320376         0.398358
 H         1.244305        -2.720330         0.256000
 H         0.316489        -2.239418         1.576557
