19
Iteration:  2334
 C        -3.106480        -1.648866         0.017470
 C        -2.032012        -0.695129         0.435727
 C        -1.557933         0.490532        -0.647644
 C        -0.815744        -0.690719        -1.303609
 C        -0.535728        -1.196964         0.161682
 C         0.135772        -2.601420         0.644871
 C         0.223509         0.016496         0.670319
 O         0.999454         0.097543         1.617471
 O        -0.421387         1.129013         0.175038
 H        -3.051396        -1.972486        -1.071674
 H        -3.317827        -2.597504         0.705481
 H        -4.045423        -1.038121         0.115831
 H        -2.149382        -0.406641         1.491251
 H        -2.138892         1.163737        -1.216835
 H        -1.549041        -1.338590        -1.878899
 H         0.042384        -0.350917        -1.815020
 H        -0.608665        -3.445336         0.676874
 H         0.870958        -2.961950         0.006693
 H         0.645256        -2.420307         1.609708
