19
Iteration:  1991charge 0 multiplicity 1
 C        -3.216120        -1.467828        -0.071860
 C        -2.018017        -0.840408         0.513377
 C        -1.543115         0.275627        -0.435123
 C        -0.659662        -0.729041        -1.258075
 C        -0.536086        -1.269094         0.261358
 C         0.022881        -2.660516         0.519005
 C         0.210208         0.056701         0.738484
 O         1.126153         0.324391         1.436487
 O        -0.489078         1.134331         0.183418
 H        -3.091982        -1.819161        -1.130733
 H        -3.575023        -2.320705         0.513284
 H        -4.061628        -0.753137        -0.068541
 H        -2.204997        -0.628213         1.567846
 H        -2.294335         0.887709        -0.979092
 H        -1.075361        -1.322229        -2.086661
 H         0.285364        -0.360408        -1.531701
 H        -0.083796        -3.220896        -0.375115
 H         1.090266        -2.700095         0.795241
 H        -0.615954        -3.140237         1.222698
