19
Iteration:   467charge 0 multiplicity 1
 C        -2.992823        -1.449297         1.172536
 C        -1.767247        -0.644307         0.997905
 C        -1.732840         0.464239        -0.117993
 C        -1.425018        -0.769029        -1.042747
 C        -0.565594        -1.214848         0.065971
 C        -0.076072        -2.624433         0.053889
 C         0.356822        -0.049978         0.172506
 O         1.506613         0.034856         0.437820
 O        -0.465833         1.130494         0.119639
 H        -2.734306        -2.287128         1.832907
 H        -3.737052        -0.842668         1.700786
 H        -3.381832        -1.817480         0.217894
 H        -1.282365        -0.317619         1.918126
 H        -2.523023         1.248015        -0.271033
 H        -2.237187        -1.402248        -1.336635
 H        -1.008210        -0.598627        -2.057143
 H         0.762019        -2.593561         0.846355
 H        -0.836713        -3.380481         0.412762
 H         0.458553        -2.862547        -0.804169
