19
Iteration:  3624
 C        -2.996398        -1.785077         0.162581
 C        -1.903251        -0.777826         0.537059
 C        -1.736913         0.508869        -0.204864
 C        -1.023018        -0.469973        -1.399447
 C        -0.537674        -1.160647        -0.044827
 C         0.152438        -2.480750         0.192395
 C         0.183053         0.003943         0.683231
 O         1.221188        -0.041262         1.331174
 O        -0.546638         1.133885         0.525545
 H        -3.821094        -1.695662         0.894425
 H        -3.367308        -1.762642        -0.935676
 H        -2.585784        -2.812413         0.349066
 H        -1.810036        -0.664927         1.635693
 H        -2.489060         1.286327        -0.414248
 H        -1.761805        -1.052713        -1.921095
 H        -0.171437        -0.062412        -2.095315
 H         1.217431        -2.310668         0.024717
 H         0.103160        -2.857082         1.173153
 H        -0.084373        -3.271465        -0.478666
