19
Iteration:  2045charge 0 multiplicity 1
 C        -3.171906        -1.843928         0.001818
 C        -2.065836        -0.682167         0.347636
 C        -1.480900         0.485411        -0.580005
 C        -0.625433        -0.640046        -1.289821
 C        -0.579429        -1.112290         0.208617
 C        -0.080589        -2.447891         0.631857
 C         0.178633         0.028257         0.787929
 O         1.184210         0.001831         1.407235
 O        -0.517285         1.147939         0.304783
 H        -2.889443        -2.365378        -0.990261
 H        -3.186188        -2.569065         0.849760
 H        -4.205545        -1.404100        -0.274859
 H        -2.215528        -0.381788         1.382194
 H        -2.005123         1.233719        -1.235066
 H        -1.395309        -1.225578        -1.826858
 H         0.291877        -0.566912        -1.816415
 H        -0.595141        -3.339756         0.468171
 H         0.908440        -2.461157         0.147642
 H         0.210093        -2.420718         1.657062
