19
Iteration:  1357
 C        -3.269534        -1.543971         0.469768
 C        -1.963823        -0.764934         0.709000
 C        -1.683677         0.457596        -0.315972
 C        -0.981821        -0.690884        -1.175995
 C        -0.610011        -1.241874         0.166113
 C         0.114385        -2.558157         0.222862
 C         0.308494         0.003762         0.598572
 O         1.439275         0.133130         0.980647
 O        -0.475476         1.096408         0.264265
 H        -4.173097        -1.043158         0.848692
 H        -3.533869        -1.565051        -0.575453
 H        -3.131145        -2.578206         0.815542
 H        -2.038857        -0.464922         1.753690
 H        -2.529837         1.081263        -0.713666
 H        -1.720861        -1.438604        -1.517959
 H        -0.357598        -0.476173        -2.103378
 H         1.181894        -2.442418         0.628942
 H        -0.489778        -3.351800         0.732245
 H         0.103372        -2.988700        -0.841034
