19
Iteration:  3613
 C        -2.960904        -1.806785         0.208107
 C        -1.925157        -0.794046         0.618033
 C        -1.712146         0.564253        -0.310818
 C        -1.056783        -0.493027        -1.312508
 C        -0.472752        -1.105817        -0.047814
 C         0.189655        -2.524468         0.098305
 C         0.250000        -0.033289         0.693414
 O         1.189861        -0.046452         1.431125
 O        -0.590698         1.131754         0.434734
 H        -3.821034        -1.799357         0.911478
 H        -3.548543        -1.517994        -0.770950
 H        -2.564946        -2.876549         0.119906
 H        -2.057489        -0.528206         1.676264
 H        -2.412628         1.388794        -0.547764
 H        -1.682139        -1.135043        -1.916505
 H        -0.419076         0.205330        -2.032393
 H         1.231310        -2.530789        -0.193665
 H         0.063842        -2.766936         1.095533
 H        -0.432465        -3.148722        -0.500315
