19
Iteration:  4772
 C        -3.116865        -1.802574         0.415464
 C        -1.914704        -0.925921         0.700125
 C        -1.754536         0.505103        -0.348484
 C        -0.890125        -0.355780        -1.397468
 C        -0.421395        -1.127570        -0.103385
 C         0.216306        -2.513791        -0.187837
 C         0.247046         0.070947         0.694806
 O         1.075996        -0.026541         1.579452
 O        -0.578439         1.083700         0.446032
 H        -3.015723        -2.751815         1.006776
 H        -4.082161        -1.292578         0.612716
 H        -3.036031        -2.174939        -0.683643
 H        -1.825770        -0.420021         1.708975
 H        -2.537362         1.263752        -0.458042
 H        -1.419079        -1.039003        -2.084289
 H        -0.019716         0.165170        -1.821329
 H        -0.316861        -3.069740        -0.917357
 H         1.199971        -2.374432        -0.704317
 H         0.381111        -3.088596         0.715751
