19
Iteration:   816charge 0 multiplicity 1
 C        -3.024521        -1.657433         0.929689
 C        -1.805317        -0.707024         0.959962
 C        -1.768842         0.481889        -0.095920
 C        -1.325547        -0.499433        -1.228192
 C        -0.580470        -1.248638        -0.016331
 C        -0.099651        -2.664921         0.270626
 C         0.354961        -0.072845         0.278999
 O         1.472264         0.110843         0.696980
 O        -0.386061         1.101787         0.061482
 H        -2.779732        -2.747050         1.139741
 H        -3.657238        -1.349155         1.743209
 H        -3.545787        -1.481376        -0.024313
 H        -1.518995        -0.358274         1.972735
 H        -2.465901         1.264266        -0.253983
 H        -2.219786        -0.999125        -1.765077
 H        -0.708466        -0.086368        -2.043094
 H        -0.113711        -3.286622        -0.685570
 H         0.985110        -2.441106         0.624219
 H        -0.661171        -3.157791         0.983150
