19
Iteration:  2149
 C        -3.331488        -1.527292         0.193388
 C        -2.010868        -0.665491         0.350530
 C        -1.508264         0.343397        -0.636707
 C        -0.431914        -0.768041        -1.249340
 C        -0.600461        -1.252332         0.194004
 C         0.183259        -2.531089         0.411618
 C         0.071097        -0.021556         0.776881
 O         0.992427         0.118230         1.549785
 O        -0.517883         1.161745         0.216668
 H        -3.259948        -2.084773        -0.712447
 H        -3.349603        -2.198366         1.017888
 H        -4.146692        -0.872967         0.234518
 H        -2.150964        -0.019899         1.242600
 H        -2.159374         0.823458        -1.255031
 H        -0.971351        -1.574821        -1.838417
 H         0.517847        -0.393213        -1.671270
 H        -0.410084        -3.450197         0.006234
 H         1.050374        -2.580587        -0.229458
 H         0.506345        -2.716788         1.508891
