19
Iteration:  2594charge 0 multiplicity 1
 C        -3.245903        -1.555604         0.203921
 C        -1.984150        -0.706272         0.373077
 C        -1.553362         0.355742        -0.698113
 C        -0.754287        -0.697122        -1.349909
 C        -0.382472        -1.208087         0.050316
 C         0.232599        -2.476925         0.535625
 C         0.141044         0.017495         0.742644
 O         0.974666         0.005507         1.613398
 O        -0.504445         1.110882         0.226754
 H        -3.179700        -2.398013        -0.428487
 H        -3.391881        -1.971980         1.198479
 H        -4.038406        -0.932019        -0.045238
 H        -1.994565        -0.191910         1.378668
 H        -2.255419         1.146937        -1.080174
 H        -1.434663        -1.409642        -1.925686
 H         0.001129        -0.183224        -1.924367
 H        -0.436610        -3.396198         0.296745
 H         1.234033        -2.673140         0.196419
 H         0.212836        -2.269114         1.645711
