19
Iteration:  2577charge 0 multiplicity 1
 C        -3.088054        -1.591715         0.155516
 C        -2.045294        -0.659746         0.488836
 C        -1.544718         0.439825        -0.575708
 C        -0.693819        -0.676975        -1.431466
 C        -0.557498        -1.195688         0.077036
 C         0.113132        -2.462079         0.586577
 C         0.211081        -0.032775         0.718716
 O         1.031810         0.049676         1.580280
 O        -0.555068         1.027074         0.190099
 H        -2.698453        -2.377171        -0.575830
 H        -3.431145        -2.113549         1.082164
 H        -4.052489        -1.193857        -0.370386
 H        -2.173753        -0.099652         1.444623
 H        -2.269824         1.127560        -1.080648
 H        -1.242410        -1.341681        -2.039459
 H         0.275489        -0.468813        -1.994351
 H        -0.490492        -3.358492         0.460417
 H         1.017816        -2.512805        -0.075829
 H         0.377250        -2.402400         1.639129
