19
Iteration:  4332charge 0 multiplicity 1
 C        -3.099563        -1.814493         0.263642
 C        -1.865176        -0.855524         0.606982
 C        -1.817731         0.446256        -0.276532
 C        -1.002175        -0.373086        -1.313411
 C        -0.499033        -1.143978        -0.004023
 C         0.176467        -2.531324        -0.069537
 C         0.240102        -0.006322         0.762324
 O         1.250096         0.083373         1.431581
 O        -0.555770         1.089623         0.464903
 H        -2.780699        -2.859561         0.116744
 H        -3.980857        -1.684631         0.931084
 H        -3.486608        -1.497649        -0.691467
 H        -1.876578        -0.712624         1.683487
 H        -2.519954         1.136658        -0.687722
 H        -1.548187        -1.087838        -1.998164
 H        -0.143697         0.137322        -1.912353
 H         0.292449        -2.730736        -1.239311
 H         1.230307        -2.364180         0.343465
 H        -0.206681        -3.421872         0.538904
