19
Iteration:  2914charge 0 multiplicity 1
 C        -3.236401        -1.635984        -0.069401
 C        -2.027380        -0.794850         0.542946
 C        -1.738863         0.324310        -0.498880
 C        -0.687701        -0.721723        -1.178900
 C        -0.416646        -1.201366         0.208558
 C         0.072691        -2.625577         0.418039
 C         0.239527         0.073049         0.759818
 O         1.174049         0.291965         1.457762
 O        -0.491145         1.108984         0.215233
 H        -4.169879        -1.269055         0.475574
 H        -3.348991        -1.470753        -1.153606
 H        -3.087887        -2.712834         0.177865
 H        -2.213898        -0.363018         1.546206
 H        -2.376407         1.073500        -0.886068
 H        -1.224743        -1.268960        -1.929128
 H         0.160689        -0.083933        -1.606238
 H        -0.711280        -3.231855         0.090374
 H         0.959134        -2.978254        -0.068053
 H         0.312086        -2.779793         1.450287
