19
Iteration:  4915charge 0 multiplicity 1
 C        -3.086490        -1.819547        -0.004301
 C        -1.986687        -0.957356         0.581609
 C        -1.703602         0.478430        -0.181075
 C        -0.949754        -0.338449        -1.223410
 C        -0.452487        -1.158499         0.088139
 C         0.148186        -2.531884         0.141169
 C         0.238749         0.024864         0.752248
 O         1.354226         0.054157         1.129177
 O        -0.666184         1.112209         0.585996
 H        -3.102258        -2.925680         0.249498
 H        -4.001241        -1.183777         0.099419
 H        -2.836092        -1.771558        -1.131414
 H        -2.175015        -0.851860         1.731632
 H        -2.472103         1.251005        -0.349858
 H        -1.691216        -0.845502        -1.845546
 H        -0.287071         0.344793        -1.777633
 H        -0.602367        -3.270782        -0.049101
 H         1.049454        -2.769361        -0.399716
 H         0.303153        -2.671520         1.231716
