19
Iteration:  4642
 C        -3.133192        -1.765611         0.018278
 C        -2.040730        -0.865671         0.594630
 C        -1.681716         0.408545        -0.195388
 C        -0.783927        -0.332777        -1.166335
 C        -0.487650        -1.176669         0.136906
 C         0.170887        -2.533230         0.075744
 C         0.201614         0.062747         0.720644
 O         1.347521         0.121072         1.012991
 O        -0.732576         0.982627         0.719300
 H        -3.343371        -2.592415         0.636785
 H        -4.043253        -1.257437        -0.110164
 H        -2.776387        -2.009146        -0.978049
 H        -2.115837        -0.818013         1.615554
 H        -2.378249         1.136218        -0.625728
 H        -1.616883        -0.688025        -1.842880
 H         0.043720        -0.029223        -1.850161
 H        -0.431025        -3.221202        -0.556923
 H         1.250512        -2.455414        -0.262291
 H         0.311000        -2.953786         1.102450
