19
Iteration:   411charge 0 multiplicity 1
 C        -3.046251        -1.461729         1.213070
 C        -1.717789        -0.679413         0.976051
 C        -1.730756         0.408850        -0.070843
 C        -1.496223        -0.722683        -1.145927
 C        -0.644127        -1.230988         0.054932
 C         0.021561        -2.568681         0.141794
 C         0.330688         0.000586         0.241054
 O         1.515525        -0.028523         0.281918
 O        -0.416035         1.142497         0.176149
 H        -3.354247        -1.434309         2.231732
 H        -3.881544        -1.081745         0.555022
 H        -2.915748        -2.517783         0.955628
 H        -1.315395        -0.360145         1.943294
 H        -2.455642         1.217158        -0.127892
 H        -2.492003        -1.144883        -1.202647
 H        -0.877871        -0.369705        -2.030238
 H        -0.359864        -3.299206         0.921558
 H         0.100338        -3.143167        -0.834058
 H         1.054708        -2.305382         0.337444
