19
Iteration:   306charge 0 multiplicity 1
 C        -2.928046        -1.492847         1.353132
 C        -1.655240        -0.663017         1.058660
 C        -1.763201         0.478458        -0.040775
 C        -1.564281        -0.627987        -1.079059
 C        -0.633118        -1.161373         0.002471
 C        -0.030428        -2.603865         0.013290
 C         0.330906        -0.055366         0.202702
 O         1.522897        -0.036575         0.296818
 O        -0.424116         1.053065         0.067493
 H        -3.613973        -1.553004         0.481404
 H        -2.816101        -2.493499         1.679538
 H        -3.506833        -1.012355         2.169247
 H        -1.229530        -0.259840         2.000441
 H        -2.443238         1.384971        -0.056439
 H        -2.457814        -1.247280        -1.150789
 H        -1.306769        -0.365045        -2.060202
 H         0.557185        -2.787223        -0.879656
 H         0.639120        -2.739371         0.848820
 H        -0.778604        -3.345082         0.010650
