19
Iteration:  3601
 C        -3.013227        -1.813029         0.252229
 C        -1.962379        -0.759302         0.637043
 C        -1.691260         0.443698        -0.310678
 C        -1.006666        -0.384945        -1.292530
 C        -0.415587        -1.132110         0.006648
 C         0.122248        -2.499210        -0.005818
 C         0.271480         0.022848         0.690935
 O         1.151170        -0.026662         1.510341
 O        -0.577099         1.110750         0.343372
 H        -3.761824        -2.014438         1.056561
 H        -3.544129        -1.451217        -0.682781
 H        -2.542263        -2.825244        -0.006742
 H        -1.859871        -0.531977         1.731240
 H        -2.444221         1.159033        -0.645068
 H        -1.782369        -1.072565        -1.700422
 H        -0.209961        -0.079239        -2.052492
 H         1.116369        -2.653985        -0.450785
 H         0.326668        -2.835448         0.980140
 H        -0.456273        -3.232710        -0.565960
