19
Iteration:  2922
 C        -3.206532        -1.626218        -0.093532
 C        -2.061763        -0.769149         0.520653
 C        -1.660992         0.251980        -0.434897
 C        -0.713329        -0.659546        -1.232963
 C        -0.470343        -1.180775         0.247917
 C         0.068899        -2.585451         0.472083
 C         0.216201         0.087722         0.755500
 O         1.251346         0.259208         1.416669
 O        -0.546061         1.089937         0.243087
 H        -4.191441        -1.184104         0.260580
 H        -3.234968        -1.692918        -1.264574
 H        -3.204942        -2.671853         0.264042
 H        -2.304950        -0.481973         1.509623
 H        -2.296835         1.043289        -0.962948
 H        -1.158793        -1.440870        -1.780277
 H         0.195628        -0.223103        -1.722621
 H        -0.712222        -3.292854         0.053204
 H         0.919309        -2.598327        -0.171966
 H         0.327067        -2.919911         1.495760
