19
Iteration:  1783
 C        -3.209677        -1.627228         0.078702
 C        -2.014263        -0.781262         0.480061
 C        -1.588452         0.331295        -0.471988
 C        -0.730583        -0.635568        -1.219381
 C        -0.605211        -1.192383         0.195843
 C        -0.043331        -2.471233         0.551732
 C         0.224672         0.004946         0.767395
 O         1.360288         0.115010         1.175379
 O        -0.542284         1.088484         0.276149
 H        -3.237695        -2.578058         0.547251
 H        -4.051337        -1.079369         0.384292
 H        -3.230686        -1.737549        -0.983962
 H        -2.248922        -0.258175         1.404078
 H        -2.168575         1.110536        -0.873795
 H        -1.194331        -1.270675        -1.991504
 H         0.137865        -0.182963        -1.624224
 H        -0.525219        -2.677940         1.532485
 H        -0.304841        -3.405635        -0.011505
 H         1.028502        -2.381680         0.844131
