19
Iteration:  4561
 C        -2.989168        -1.855462         0.271665
 C        -1.880165        -0.800010         0.554605
 C        -1.688513         0.543725        -0.247080
 C        -1.079859        -0.325137        -1.335163
 C        -0.451278        -1.140492        -0.017998
 C         0.201395        -2.451867         0.040607
 C         0.188338        -0.088105         0.699630
 O         1.165155        -0.088870         1.438288
 O        -0.605615         1.140034         0.426734
 H        -2.465543        -2.836508         0.436497
 H        -4.078751        -1.768623         0.629416
 H        -3.161511        -1.971783        -0.809016
 H        -1.817194        -0.698063         1.687600
 H        -2.387682         1.272586        -0.667340
 H        -1.726311        -1.025008        -1.857826
 H        -0.397643         0.319192        -1.865560
 H        -0.045648        -2.999460        -0.893924
 H         1.257887        -2.321472         0.069694
 H        -0.058837        -3.042064         0.892408
