19
Iteration:  3023
 C        -3.003682        -1.688822         0.043854
 C        -2.034422        -0.731177         0.532607
 C        -1.627311         0.400626        -0.505035
 C        -0.860896        -0.639077        -1.253032
 C        -0.497319        -1.178685         0.146906
 C         0.010358        -2.682929         0.378597
 C         0.252128         0.064762         0.760694
 O         1.235772         0.207847         1.415799
 O        -0.579829         1.127841         0.344271
 H        -2.817864        -1.935099        -1.107148
 H        -3.143039        -2.665356         0.544362
 H        -4.048235        -1.176365         0.052121
 H        -2.170397        -0.435795         1.572555
 H        -2.226551         1.170757        -0.891745
 H        -1.483111        -1.397675        -1.810518
 H        -0.247393        -0.117202        -2.018646
 H        -0.310871        -3.357211        -0.380485
 H         1.091243        -2.534349         0.328473
 H        -0.317720        -3.112156         1.350628
