19
Iteration:  4481
 C        -3.057381        -1.768671         0.137061
 C        -1.890240        -0.911989         0.600051
 C        -1.723818         0.436063        -0.215162
 C        -0.978061        -0.373299        -1.252448
 C        -0.429884        -1.147598         0.002223
 C         0.194747        -2.550086        -0.168129
 C         0.206176        -0.028927         0.801646
 O         1.235182         0.140118         1.458937
 O        -0.638802         1.064498         0.482499
 H        -3.444017        -2.508522         0.859935
 H        -3.850952        -1.035687         0.327698
 H        -3.123965        -2.237032        -0.889832
 H        -2.115825        -0.700922         1.695712
 H        -2.293655         1.305112        -0.485977
 H        -1.563244        -1.009636        -1.871214
 H        -0.270677         0.135163        -1.884756
 H        -0.547540        -3.276490        -0.066604
 H         0.586670        -2.652646        -1.162449
 H         0.909474        -2.819488         0.613660
