19
Iteration:   257
 C        -2.919648        -1.361076         1.469474
 C        -1.783123        -0.571659         1.060003
 C        -1.779545         0.401254        -0.074436
 C        -1.546797        -0.625822        -1.122588
 C        -0.591577        -1.210374        -0.066626
 C         0.053752        -2.603702        -0.097432
 C         0.331357        -0.145040         0.156147
 O         1.526487        -0.028188         0.252790
 O        -0.448194         1.042507         0.251168
 H        -3.055671        -2.368445         1.081180
 H        -2.775684        -1.612718         2.589192
 H        -3.888502        -0.858419         1.430780
 H        -1.304706        -0.166087         1.942692
 H        -2.532938         1.126111        -0.156763
 H        -2.458720        -1.239854        -1.314155
 H        -1.169101        -0.312258        -2.183901
 H         1.149708        -2.736651         0.071493
 H        -0.448764        -3.224693         0.687216
 H        -0.240244        -3.104394        -1.106457
