19
Iteration:  4842charge 0 multiplicity 1
 C        -3.118946        -1.843431         0.050840
 C        -1.992336        -0.876465         0.550666
 C        -1.792484         0.479207        -0.192790
 C        -0.907351        -0.314101        -1.233667
 C        -0.538164        -1.165966         0.119691
 C         0.174383        -2.505521         0.063963
 C         0.233853         0.032632         0.773647
 O         1.381956         0.047201         1.176299
 O        -0.639311         1.060170         0.555498
 H        -2.948357        -2.772974         0.557763
 H        -4.038330        -1.380163         0.300853
 H        -3.040276        -2.051836        -0.973740
 H        -2.017026        -0.845064         1.597861
 H        -2.470145         1.322472        -0.368195
 H        -1.459004        -0.945679        -1.950379
 H        -0.018727         0.190874        -1.659576
 H        -0.298394        -3.309413        -0.548993
 H         1.198457        -2.354080        -0.301210
 H         0.185348        -2.908343         1.103221
