19
Iteration:  2247charge 0 multiplicity 1
 C        -3.141324        -1.734732         0.043690
 C        -2.096834        -0.647150         0.313627
 C        -1.410099         0.377404        -0.666448
 C        -0.554427        -0.665376        -1.204172
 C        -0.639208        -1.193023         0.326359
 C        -0.129570        -2.551713         0.572946
 C         0.183257         0.040995         0.778353
 O         1.261755         0.224762         1.298192
 O        -0.603085         1.068032         0.372022
 H        -2.939678        -2.332185        -0.873687
 H        -3.090397        -2.513536         0.857280
 H        -4.084162        -1.195292         0.022848
 H        -2.339101        -0.244875         1.297073
 H        -1.981968         1.049583        -1.198304
 H        -1.273741        -1.284974        -1.845163
 H         0.373648        -0.465999        -1.703912
 H        -0.454205        -3.358887        -0.189011
 H         0.914373        -2.485419         0.475034
 H        -0.519540        -3.021628         1.511603
