19
Iteration:  4118charge 0 multiplicity 1
 C        -3.109211        -1.819227         0.131021
 C        -1.980560        -0.945676         0.668466
 C        -1.722245         0.487862        -0.178567
 C        -0.924427        -0.321344        -1.267366
 C        -0.506732        -1.198023         0.022153
 C         0.107791        -2.569116         0.028198
 C         0.293968        -0.007411         0.710303
 O         1.390029         0.206407         1.183550
 O        -0.669437         1.039646         0.571318
 H        -2.934984        -2.904206         0.179631
 H        -4.123058        -1.586852         0.503462
 H        -3.145188        -1.669021        -0.975392
 H        -2.236755        -0.663761         1.696337
 H        -2.550305         1.195409        -0.233358
 H        -1.622073        -0.880596        -1.902103
 H        -0.119480         0.149160        -1.752452
 H         1.025379        -2.455573        -0.609610
 H         0.522846        -2.920303         1.039553
 H        -0.559984        -3.383407        -0.338504
