19
Iteration:   281
 C        -3.050344        -1.456598         1.549667
 C        -1.719015        -0.719656         1.051880
 C        -1.801922         0.434449        -0.011740
 C        -1.464525        -0.536094        -1.157771
 C        -0.709793        -1.206859        -0.018940
 C         0.041854        -2.608531        -0.022595
 C         0.388821        -0.047323         0.112829
 O         1.571362        -0.095765         0.296326
 O        -0.470259         1.097626         0.046397
 H        -3.530096        -2.150786         0.858537
 H        -2.836618        -2.177077         2.426384
 H        -3.802613        -0.743810         1.949930
 H        -1.251400        -0.299970         1.958793
 H        -2.486447         1.260309         0.107561
 H        -2.257252        -1.064759        -1.711950
 H        -0.912121         0.021766        -2.015015
 H         1.115540        -2.481649        -0.487093
 H         0.246656        -3.022571         0.997331
 H        -0.426884        -3.352802        -0.614298
