19
Iteration:  2363
 C        -3.092566        -1.660952         0.294096
 C        -2.023504        -0.631515         0.365258
 C        -1.470719         0.323004        -0.749825
 C        -0.553835        -0.721653        -1.348473
 C        -0.564170        -1.137478         0.171148
 C        -0.075136        -2.518905         0.400378
 C         0.173342         0.026948         0.789319
 O         0.995121         0.102565         1.655261
 O        -0.512464         1.122538         0.200570
 H        -3.090798        -2.332368        -0.553619
 H        -2.962697        -2.320796         1.092129
 H        -4.021419        -1.131355         0.330598
 H        -2.123084        -0.185668         1.383432
 H        -2.117509         0.864893        -1.477075
 H        -1.061263        -1.419120        -2.007314
 H         0.336253        -0.169639        -1.662254
 H        -0.760176        -3.309917         0.158721
 H         0.746604        -2.696740        -0.386172
 H         0.289065        -2.710103         1.418060
