19
Iteration:  1594charge 0 multiplicity 1
 C        -3.110359        -1.684061         0.277260
 C        -1.908236        -0.766116         0.513843
 C        -1.663597         0.391823        -0.400656
 C        -0.918652        -0.549825        -1.312204
 C        -0.496994        -1.174385         0.117533
 C        -0.108207        -2.664932         0.444960
 C         0.296099         0.094522         0.634293
 O         1.369387         0.101343         1.202249
 O        -0.549361         1.163619         0.344928
 H        -2.920205        -2.218692        -0.625605
 H        -3.221382        -2.483831         1.043955
 H        -4.051273        -1.132820         0.037926
 H        -1.876415        -0.503814         1.603641
 H        -2.435645         1.136611        -0.818990
 H        -1.670694        -1.131008        -1.884225
 H        -0.127340        -0.277152        -2.039356
 H         0.921208        -3.040419         0.074169
 H        -0.137925        -2.710914         1.559179
 H        -0.985678        -3.295108         0.037287
