19
Iteration:  3420
 C        -3.177102        -1.728107         0.099104
 C        -1.984156        -0.893050         0.512293
 C        -1.682559         0.418573        -0.350521
 C        -0.774670        -0.476369        -1.176020
 C        -0.550810        -1.216534         0.154383
 C         0.011299        -2.564076         0.208166
 C         0.219763         0.015885         0.771947
 O         1.386293         0.213413         1.075730
 O        -0.598709         1.097479         0.549522
 H        -3.376011        -1.793628        -0.941861
 H        -3.055439        -2.780673         0.485915
 H        -4.017176        -1.405074         0.660820
 H        -2.176627        -0.570031         1.523421
 H        -2.402291         1.148706        -0.719223
 H        -1.111491        -1.201220        -1.872452
 H         0.072459         0.056834        -1.663379
 H         1.079370        -2.419757         0.565008
 H        -0.615249        -3.134382         1.064600
 H        -0.050815        -3.206156        -0.690732
