19
Iteration:  4667charge 0 multiplicity 1
 C        -3.103169        -1.767954        -0.059013
 C        -2.022739        -0.876109         0.519500
 C        -1.804637         0.459320        -0.126392
 C        -0.974289        -0.368758        -1.245000
 C        -0.579078        -1.165578         0.019245
 C         0.206845        -2.484113         0.194697
 C         0.254743         0.007275         0.764378
 O         1.461802         0.056758         1.133612
 O        -0.655736         1.067260         0.660881
 H        -3.092145        -2.677396         0.570234
 H        -4.088970        -1.355293        -0.014308
 H        -2.820563        -1.999764        -1.062338
 H        -1.898537        -1.132787         1.588510
 H        -2.659806         1.111248        -0.340482
 H        -1.549558        -0.836536        -2.056091
 H        -0.165624         0.094423        -1.855582
 H        -0.388076        -3.389864        -0.043406
 H         1.074972        -2.456983        -0.493585
 H         0.643641        -2.648451         1.243226
