19
Iteration:  2357
 C        -3.104602        -1.649467         0.215437
 C        -2.021025        -0.601325         0.359286
 C        -1.481114         0.296644        -0.638976
 C        -0.594382        -0.722439        -1.384356
 C        -0.529267        -1.123398         0.184907
 C        -0.043021        -2.470196         0.426158
 C         0.135939        -0.005204         0.820905
 O         1.004393         0.083228         1.639311
 O        -0.498435         1.102388         0.160032
 H        -3.029475        -2.238632        -0.757986
 H        -3.032135        -2.380265         1.175846
 H        -4.182538        -1.291484         0.366169
 H        -1.943399        -0.144403         1.345064
 H        -2.067376         0.843263        -1.353698
 H        -1.194002        -1.473229        -1.991078
 H         0.311165        -0.224832        -1.741909
 H        -0.832828        -3.267641         0.244045
 H         0.743646        -2.694158        -0.243685
 H         0.460083        -2.450844         1.418019
