19
Iteration:  4298charge 0 multiplicity 1
 C        -3.062700        -1.827337         0.422117
 C        -1.875296        -0.800707         0.548349
 C        -1.795745         0.477285        -0.316146
 C        -1.001603        -0.397864        -1.423046
 C        -0.433188        -1.079793        -0.097439
 C         0.245062        -2.440868        -0.017320
 C         0.139454        -0.035134         0.668177
 O         1.086592        -0.126334         1.445894
 O        -0.512865         1.161539         0.521501
 H        -2.583883        -2.842158         0.496262
 H        -3.734598        -1.706351         1.267829
 H        -3.469605        -1.768835        -0.606699
 H        -1.662605        -0.653408         1.598599
 H        -2.499374         1.275833        -0.490120
 H        -1.659251        -1.125414        -1.969482
 H        -0.171794         0.132745        -2.045882
 H         0.849918        -2.672616        -1.026715
 H         1.173618        -2.210983         0.632266
 H        -0.338777        -3.400756         0.304537
