19
Iteration:  2821charge 0 multiplicity 1
 C        -3.135446        -1.691766         0.210071
 C        -2.018917        -0.654236         0.439415
 C        -1.537010         0.431553        -0.639962
 C        -0.705785        -0.669616        -1.328346
 C        -0.438167        -1.199496         0.037518
 C         0.072147        -2.509611         0.518590
 C         0.209198        -0.016103         0.752558
 O         0.989390         0.171896         1.624756
 O        -0.515218         1.023917         0.135451
 H        -2.788722        -2.715228         0.398325
 H        -4.056738        -1.487377         0.886666
 H        -3.532140        -1.657547        -0.842436
 H        -2.037066        -0.385107         1.485954
 H        -2.270684         1.145361        -1.178269
 H        -1.437589        -1.317832        -1.869879
 H         0.081209        -0.287998        -1.887892
 H        -0.393994        -3.397248         0.030470
 H         1.176523        -2.542692         0.366173
 H         0.002022        -2.434553         1.615656
