19
Iteration:  4361charge 0 multiplicity 1
 C        -3.083520        -1.772330         0.065014
 C        -1.919513        -0.885269         0.643360
 C        -1.733617         0.454446        -0.178177
 C        -0.952242        -0.403155        -1.160159
 C        -0.452163        -1.180635         0.064113
 C         0.112098        -2.582152        -0.039608
 C         0.302721         0.022753         0.678936
 O         1.307840         0.164651         1.267766
 O        -0.680504         1.093773         0.570974
 H        -2.988135        -2.884547         0.196387
 H        -4.086704        -1.572966         0.437659
 H        -3.225711        -1.507366        -1.050302
 H        -2.028512        -0.829769         1.739364
 H        -2.414815         1.072902        -0.768596
 H        -1.528373        -1.063448        -1.760083
 H        -0.263304        -0.030502        -1.862204
 H        -0.125801        -3.038152        -0.979799
 H         1.189124        -2.448657         0.095916
 H        -0.163572        -3.329879         0.713251
