19
Iteration:  3188charge 0 multiplicity 1
 C        -3.203178        -1.711185        -0.014825
 C        -2.046250        -0.822205         0.495577
 C        -1.588640         0.361516        -0.416010
 C        -0.677458        -0.456771        -1.252936
 C        -0.441635        -1.226873         0.137091
 C         0.032065        -2.600443         0.388922
 C         0.200406         0.040924         0.782543
 O         1.311923         0.186598         1.153873
 O        -0.695390         1.103310         0.574733
 H        -3.800192        -1.738622         0.925924
 H        -3.939711        -1.350144        -0.692543
 H        -2.899750        -2.680317        -0.490549
 H        -2.168820        -0.568462         1.541740
 H        -2.295524         1.100369        -0.836774
 H        -1.137039        -1.182868        -2.005333
 H         0.164865         0.112481        -1.611507
 H        -0.641491        -3.262747        -0.135023
 H         1.013438        -2.832761        -0.158226
 H         0.221477        -2.910518         1.413403
