19
Iteration:  1633charge 0 multiplicity 1
 C        -3.191827        -1.556562         0.250340
 C        -1.994244        -0.699148         0.653609
 C        -1.568378         0.439221        -0.435829
 C        -0.943329        -0.676384        -1.231148
 C        -0.567818        -1.280621         0.187417
 C         0.098483        -2.666625         0.288675
 C         0.240075         0.039563         0.628514
 O         1.218435         0.191224         1.329712
 O        -0.449014         1.080520         0.191264
 H        -3.643300        -1.287598        -0.773190
 H        -2.814602        -2.604001         0.298590
 H        -4.044032        -1.378166         0.918066
 H        -1.965983        -0.395563         1.717700
 H        -2.199815         1.156286        -0.872791
 H        -1.525388        -1.409608        -1.884178
 H        -0.184154        -0.163990        -1.805331
 H         0.340382        -3.045474        -0.655021
 H         0.988386        -2.595506         0.960075
 H        -0.449899        -3.474204         0.706943
