19
Iteration:  2191
 C        -3.059063        -1.661427        -0.033784
 C        -1.955172        -0.644004         0.464073
 C        -1.554691         0.476758        -0.512344
 C        -0.893855        -0.716540        -1.443021
 C        -0.506294        -1.239865         0.121748
 C         0.024458        -2.539917         0.673138
 C         0.211962        -0.042880         0.710193
 O         1.032696         0.165559         1.585111
 O        -0.414414         1.087714         0.184131
 H        -2.801883        -2.149471        -0.974519
 H        -3.315477        -2.385924         0.818711
 H        -3.994065        -1.136429        -0.294088
 H        -2.099016        -0.543693         1.541821
 H        -2.246456         1.279362        -0.674093
 H        -1.430145        -1.482343        -1.971313
 H        -0.064339        -0.308384        -2.030778
 H        -0.213206        -3.357095        -0.025364
 H         1.079398        -2.512888         0.892838
 H        -0.330398        -2.697145         1.695415
