19
Iteration:  2997
 C        -3.068857        -1.786228        -0.048334
 C        -2.000398        -0.832969         0.469243
 C        -1.653300         0.388336        -0.372359
 C        -0.750587        -0.507056        -1.291372
 C        -0.525509        -1.165307         0.126282
 C        -0.053044        -2.504495         0.579861
 C         0.177813         0.032841         0.708343
 O         1.260409         0.113851         1.267586
 O        -0.506992         1.138935         0.362940
 H        -3.390155        -1.704936        -1.041527
 H        -2.713410        -2.827503         0.088520
 H        -3.920782        -1.731658         0.562212
 H        -2.168278        -0.662258         1.530786
 H        -2.363242         1.239919        -0.655618
 H        -1.245918        -1.122479        -1.977855
 H        -0.043892         0.091744        -1.864000
 H        -0.501567        -3.430460         0.049690
 H         1.037033        -2.474241         0.631129
 H        -0.567571        -2.580975         1.573324
