19
Iteration:  4374charge 0 multiplicity 1
 C        -3.095026        -1.798937         0.008280
 C        -1.974610        -0.914145         0.607754
 C        -1.796693         0.433616        -0.232187
 C        -0.933651        -0.387013        -1.242655
 C        -0.549607        -1.196225         0.080754
 C         0.163903        -2.589344         0.057017
 C         0.215811         0.057648         0.744863
 O         1.409774         0.176482         1.193726
 O        -0.612349         1.083328         0.640248
 H        -2.954971        -2.885070         0.308684
 H        -4.036459        -1.344194         0.405453
 H        -3.075218        -1.816236        -1.110795
 H        -1.966021        -0.710395         1.683202
 H        -2.528777         1.213924        -0.164194
 H        -1.575869        -0.864968        -1.978385
 H        -0.114401         0.231123        -1.639301
 H        -0.302771        -3.059859        -0.887669
 H         1.266942        -2.627818        -0.166651
 H        -0.144940        -3.218239         0.978558
