19
Iteration:  3833
 C        -3.132710        -1.744984         0.345499
 C        -1.926004        -0.846915         0.601691
 C        -1.670410         0.399559        -0.259392
 C        -0.972448        -0.443711        -1.253544
 C        -0.394985        -1.185860        -0.029348
 C         0.160814        -2.548913        -0.287650
 C         0.316227         0.037500         0.674319
 O         1.147004         0.160025         1.560561
 O        -0.614134         1.034396         0.460126
 H        -2.764205        -2.561720        -0.240404
 H        -3.607887        -2.077942         1.284811
 H        -3.769839        -1.138433        -0.246593
 H        -1.709898        -0.573529         1.651917
 H        -2.448690         1.135143        -0.534053
 H        -1.710672        -1.120289        -1.686062
 H        -0.293063         0.274487        -1.834714
 H         1.189977        -2.619386        -0.796352
 H         0.251759        -3.120961         0.637399
 H        -0.545486        -2.968956        -1.003283
