19
Iteration:   152
 C        -2.912919        -1.554276         1.567779
 C        -1.746590        -0.663787         1.037545
 C        -1.793722         0.454388         0.004583
 C        -1.531712        -0.492496        -1.159494
 C        -0.685750        -1.194355         0.025904
 C        -0.089191        -2.547826        -0.010049
 C         0.413985        -0.096800         0.165438
 O         1.602247        -0.105184        -0.010161
 O        -0.477712         1.057570         0.264154
 H        -2.464353        -2.201823         2.294769
 H        -3.681263        -0.852342         1.983711
 H        -3.361699        -2.059929         0.714373
 H        -1.238411        -0.238978         1.946781
 H        -2.514517         1.286542        -0.052677
 H        -2.374548        -0.990641        -1.570467
 H        -0.913880        -0.028374        -1.922611
 H        -0.703633        -3.456513         0.357314
 H         0.334379        -2.709806        -1.013957
 H         0.773843        -2.515903         0.611619
