19
Iteration:  1292charge 0 multiplicity 1
 C        -3.126090        -1.694117         0.522081
 C        -1.931154        -0.741680         0.716879
 C        -1.771725         0.430145        -0.300322
 C        -1.136571        -0.544635        -1.318033
 C        -0.576961        -1.161797         0.079668
 C        -0.039399        -2.568862         0.363486
 C         0.363801         0.011812         0.455137
 O         1.468321         0.035661         0.970596
 O        -0.407935         1.147610         0.317108
 H        -3.783136        -1.334821        -0.270416
 H        -2.758254        -2.619340         0.184216
 H        -3.613370        -1.899059         1.459769
 H        -1.716039        -0.564319         1.774193
 H        -2.494402         1.257280        -0.444496
 H        -1.936940        -1.209335        -1.676776
 H        -0.600195        -0.156279        -2.213808
 H        -0.773973        -3.119249         0.972476
 H         0.146335        -3.092503        -0.581914
 H         0.881288        -2.621838         0.997500
