19
Iteration:  3075
 C        -3.257691        -1.599056         0.335335
 C        -1.992880        -0.737373         0.428964
 C        -1.610058         0.351152        -0.595438
 C        -0.715688        -0.591476        -1.389216
 C        -0.470320        -1.188120         0.003327
 C         0.288099        -2.591624         0.247740
 C         0.135689         0.026205         0.802365
 O         1.048275         0.062112         1.583421
 O        -0.538799         1.129048         0.307828
 H        -3.051958        -2.631311         0.202715
 H        -3.730973        -1.649781         1.297280
 H        -3.990759        -1.268407        -0.312912
 H        -2.067581        -0.319064         1.415278
 H        -2.484972         0.969371        -0.774606
 H        -1.252853        -1.101985        -2.094576
 H         0.199590        -0.128631        -1.762867
 H        -0.439964        -3.321209        -0.212672
 H         1.226558        -2.679295        -0.300503
 H         0.595983        -2.625622         1.335608
