19
Iteration:  3214charge 0 multiplicity 1
 C        -3.165213        -1.676412        -0.118176
 C        -2.087040        -0.856441         0.537310
 C        -1.676659         0.444928        -0.278310
 C        -0.811722        -0.483077        -1.216645
 C        -0.573760        -1.240633         0.140348
 C         0.148522        -2.474688         0.473741
 C         0.226867        -0.053037         0.723379
 O         1.370728         0.135630         1.143574
 O        -0.623884         1.052983         0.466335
 H        -3.983316        -1.749729         0.569748
 H        -3.725819        -1.149974        -0.984424
 H        -2.828028        -2.623460        -0.586713
 H        -2.214753        -0.791774         1.651830
 H        -2.442487         1.191831        -0.613813
 H        -1.184516        -1.148258        -1.970397
 H         0.209511        -0.043605        -1.537855
 H         0.039612        -3.219017        -0.288149
 H         1.153994        -2.238258         0.462334
 H        -0.021617        -2.835215         1.449108
