19
Iteration:  3526charge 0 multiplicity 1
 C        -3.138857        -1.710325         0.264425
 C        -1.929354        -0.839184         0.535283
 C        -1.641032         0.450398        -0.367624
 C        -0.893976        -0.433194        -1.280881
 C        -0.492046        -1.198195        -0.013235
 C         0.240102        -2.437662         0.090733
 C         0.204647        -0.019433         0.734363
 O         1.174892        -0.005881         1.427480
 O        -0.633646         1.069907         0.427262
 H        -3.317422        -2.600143         0.873259
 H        -4.057189        -1.107227         0.433075
 H        -3.062849        -2.085832        -0.759879
 H        -1.852209        -0.527017         1.568224
 H        -2.428299         1.177450        -0.574103
 H        -1.649984        -1.016988        -1.707945
 H        -0.253092         0.053091        -2.056409
 H         0.816995        -2.561536        -0.817994
 H         0.948799        -2.454218         0.817023
 H        -0.316305        -3.315856         0.048023
