19
Iteration:  3504charge 0 multiplicity 1
 C        -3.105428        -1.770059         0.081353
 C        -2.000510        -0.803487         0.634284
 C        -1.800647         0.489448        -0.271557
 C        -0.978319        -0.431797        -1.311376
 C        -0.553670        -1.182595         0.013651
 C         0.289551        -2.486018         0.243370
 C         0.217253         0.019415         0.675422
 O         1.240675        -0.045929         1.309007
 O        -0.506301         1.118902         0.427550
 H        -2.896496        -2.818993         0.352399
 H        -3.958261        -1.547688         0.731213
 H        -3.323715        -1.796036        -0.989942
 H        -2.162414        -0.669615         1.695832
 H        -2.474770         1.339759        -0.452569
 H        -1.544284        -0.902794        -2.064573
 H        -0.077856         0.122112        -1.643868
 H         1.096366        -2.756204        -0.411629
 H         0.746482        -2.470250         1.149775
 H        -0.290772        -3.348728         0.116202
