19
Iteration:  2234charge 0 multiplicity 1
 C        -3.079767        -1.729824         0.014381
 C        -2.089271        -0.692312         0.401331
 C        -1.603881         0.389974        -0.576892
 C        -0.583343        -0.688995        -1.306704
 C        -0.530658        -1.118631         0.252822
 C        -0.182107        -2.561180         0.609883
 C         0.244401         0.073571         0.805509
 O         1.288634         0.155428         1.381584
 O        -0.591032         1.088293         0.257858
 H        -2.845546        -2.289794        -0.925583
 H        -3.181062        -2.463653         0.937852
 H        -4.151849        -1.440868        -0.147245
 H        -2.369182        -0.133178         1.302349
 H        -2.117563         1.209600        -1.105042
 H        -0.961787        -1.432405        -2.016024
 H         0.368397        -0.333923        -1.693810
 H        -0.520874        -3.108664        -0.261263
 H         0.865537        -2.705762         0.803534
 H        -0.664825        -2.926118         1.518780
