19
Iteration:  4560charge 0 multiplicity 1
 C        -2.992773        -1.862233         0.278515
 C        -1.890271        -0.796143         0.559444
 C        -1.681673         0.550552        -0.246340
 C        -1.077693        -0.326679        -1.340447
 C        -0.450051        -1.137819        -0.019904
 C         0.202597        -2.442422         0.034179
 C         0.189319        -0.092837         0.691023
 O         1.169858        -0.094390         1.449702
 O        -0.608920         1.140782         0.420255
 H        -2.486225        -2.868898         0.430035
 H        -4.085476        -1.780061         0.652474
 H        -3.172811        -1.985722        -0.817414
 H        -1.809335        -0.717097         1.725391
 H        -2.386248         1.257343        -0.682753
 H        -1.708201        -1.001805        -1.887318
 H        -0.388129         0.314977        -1.849238
 H        -0.024843        -3.022551        -0.859227
 H         1.251327        -2.282550         0.047851
 H        -0.078061        -3.025481         0.900523
