19
Iteration:   422
 C        -3.097384        -1.488167         1.184305
 C        -1.790036        -0.676846         1.073997
 C        -1.847135         0.510321        -0.012756
 C        -1.472050        -0.653533        -1.077768
 C        -0.559897        -1.230262         0.029100
 C         0.089607        -2.620014         0.125718
 C         0.361121        -0.042173         0.118035
 O         1.575499        -0.004944         0.355993
 O        -0.414250         1.085880         0.085729
 H        -3.345040        -1.512162         2.223837
 H        -3.931025        -0.888538         0.727844
 H        -3.129535        -2.505011         0.787977
 H        -1.455822        -0.275804         2.037182
 H        -2.644721         1.266027        -0.053476
 H        -2.212054        -1.370991        -1.440112
 H        -1.063846        -0.376414        -2.108215
 H        -0.220529        -3.169471         1.079775
 H        -0.243205        -3.201376        -0.788915
 H         1.159957        -2.517097         0.179951
