19
Iteration:  2626charge 0 multiplicity 1
 C        -3.284619        -1.490237         0.224952
 C        -1.980312        -0.719113         0.461018
 C        -1.503178         0.327685        -0.584727
 C        -0.690044        -0.768821        -1.296305
 C        -0.500113        -1.288518         0.083831
 C         0.209785        -2.540247         0.354372
 C         0.151639         0.016328         0.751663
 O         0.942974         0.213445         1.681370
 O        -0.444229         1.083621         0.105881
 H        -3.420790        -1.898338        -0.756837
 H        -3.205506        -2.343768         0.925811
 H        -4.192297        -0.979910         0.466621
 H        -2.122722        -0.287745         1.464200
 H        -2.312438         0.956582        -1.034474
 H        -1.154414        -1.422084        -2.113614
 H         0.160156        -0.335483        -1.793314
 H        -0.186511        -3.402881        -0.232563
 H         1.231985        -2.352779         0.171843
 H         0.066022        -2.790172         1.418698
