19
Iteration:  4478
 C        -3.078960        -1.772310         0.134687
 C        -1.895678        -0.934432         0.581218
 C        -1.723790         0.439338        -0.191151
 C        -0.984960        -0.350973        -1.235507
 C        -0.437461        -1.161568         0.028634
 C         0.183402        -2.548959        -0.159570
 C         0.241761        -0.011041         0.828694
 O         1.242856         0.132603         1.442291
 O        -0.645831         1.066086         0.459884
 H        -3.360768        -2.543824         0.836742
 H        -3.917232        -1.066754         0.114418
 H        -3.031836        -2.165565        -0.898772
 H        -2.029674        -0.662943         1.652638
 H        -2.363822         1.306338        -0.471796
 H        -1.626779        -1.008033        -1.886385
 H        -0.225499         0.081446        -1.928751
 H        -0.662242        -3.279151        -0.043831
 H         0.687028        -2.687414        -1.175151
 H         1.012117        -2.734513         0.585965
