19
Iteration:  2173charge 0 multiplicity 1
 C        -3.194469        -1.580050         0.058768
 C        -2.046994        -0.714470         0.444483
 C        -1.541299         0.358160        -0.656840
 C        -0.769693        -0.676984        -1.289566
 C        -0.494621        -1.187839         0.110959
 C         0.122665        -2.486779         0.556771
 C         0.198073         0.061502         0.765099
 O         1.055537         0.055218         1.648557
 O        -0.458027         1.059202         0.147488
 H        -2.900523        -2.165810        -0.807003
 H        -3.294210        -2.240158         0.844071
 H        -4.082163        -0.991250        -0.061002
 H        -2.351183        -0.156640         1.350885
 H        -2.145050         1.045427        -1.215145
 H        -1.594091        -1.321267        -1.803315
 H         0.082986        -0.430049        -1.934795
 H        -0.107773        -3.443068        -0.074464
 H         1.212318        -2.470865         0.439794
 H         0.018549        -2.601415         1.698883
