19
Iteration:   991charge 0 multiplicity 1
 C        -3.057464        -1.617779         0.960815
 C        -1.806993        -0.724013         0.792541
 C        -1.707765         0.487589        -0.259868
 C        -1.239334        -0.611577        -1.335380
 C        -0.526950        -1.149932        -0.050107
 C        -0.179365        -2.571029         0.083150
 C         0.360465        -0.045754         0.427077
 O         1.479132         0.070455         0.852517
 O        -0.509899         1.077738         0.315546
 H        -3.050155        -1.980997         1.990924
 H        -3.956261        -1.289273         0.483125
 H        -2.673229        -2.524262         0.486869
 H        -1.366286        -0.421363         1.751852
 H        -2.404984         1.340043        -0.383409
 H        -1.914343        -1.445275        -1.626834
 H        -0.602743        -0.292330        -2.204023
 H         0.736976        -2.651289        -0.520571
 H         0.279124        -2.762633         1.145133
 H        -0.973096        -3.211878        -0.206847
