19
Iteration:  2024charge 0 multiplicity 1
 C        -3.219156        -1.646132         0.015788
 C        -2.087885        -0.740427         0.302849
 C        -1.509774         0.361888        -0.638850
 C        -0.608900        -0.664155        -1.321048
 C        -0.469564        -1.195670         0.183396
 C        -0.003184        -2.581644         0.617297
 C         0.217784         0.025777         0.786261
 O         1.240738         0.156106         1.393453
 O        -0.642312         1.148103         0.421184
 H        -3.177111        -2.334281        -0.886820
 H        -3.301604        -2.218237         0.966356
 H        -4.101993        -0.968764        -0.164317
 H        -2.321140        -0.269767         1.262272
 H        -2.181635         1.143596        -1.094819
 H        -1.119000        -1.351174        -1.992623
 H         0.324782        -0.322975        -1.715568
 H        -0.596847        -3.263903         0.072058
 H         1.061862        -2.902084         0.592807
 H        -0.307066        -2.751195         1.627546
