19
Iteration:  3261
 C        -3.075691        -1.707862         0.013213
 C        -1.972943        -0.785556         0.556093
 C        -1.654417         0.404817        -0.304251
 C        -0.877661        -0.501315        -1.254404
 C        -0.555233        -1.197753         0.100661
 C         0.097690        -2.482071         0.304883
 C         0.233008         0.024055         0.688806
 O         1.237006         0.069935         1.340202
 O        -0.565957         1.061328         0.392812
 H        -3.950095        -1.809258         0.719917
 H        -3.624924        -1.374636        -0.881556
 H        -2.655630        -2.690260        -0.232680
 H        -2.142107        -0.580183         1.636910
 H        -2.348953         1.067761        -0.736729
 H        -1.515140        -1.005783        -2.072721
 H        -0.100622         0.049835        -1.842154
 H         0.443144        -3.079216        -0.605952
 H         1.013559        -2.322461         0.989668
 H        -0.507406        -3.069159         1.089479
