19
Iteration:  2962
 C        -3.143564        -1.742974        -0.074030
 C        -2.146465        -0.709065         0.384513
 C        -1.559979         0.414628        -0.433715
 C        -0.673316        -0.555940        -1.288808
 C        -0.532221        -1.185909         0.206301
 C         0.104180        -2.496425         0.654306
 C         0.174454         0.036625         0.661369
 O         1.264923         0.031000         1.183922
 O        -0.650096         1.117547         0.486171
 H        -3.935887        -1.444389        -0.673403
 H        -2.572411        -2.509790        -0.546026
 H        -3.484294        -2.143530         0.852959
 H        -2.367719        -0.338708         1.429282
 H        -2.329220         1.151002        -0.830554
 H        -1.268262        -1.329621        -1.899775
 H         0.057040         0.019612        -1.806926
 H        -0.289980        -3.441090         0.173093
 H         1.242088        -2.633935         0.540072
 H         0.115266        -2.496196         1.765437
