19
Iteration:  1714charge 0 multiplicity 1
 C        -3.179179        -1.641954         0.304783
 C        -1.962804        -0.708712         0.554141
 C        -1.623925         0.382338        -0.504361
 C        -0.858527        -0.614123        -1.360997
 C        -0.448141        -1.192313         0.108735
 C         0.045856        -2.571803         0.470905
 C         0.275860         0.044198         0.605076
 O         1.153278         0.085505         1.416879
 O        -0.452857         1.101668         0.195370
 H        -3.907614        -1.239616         0.964652
 H        -3.644491        -1.444976        -0.686768
 H        -3.010665        -2.734844         0.418150
 H        -1.959963        -0.354534         1.609419
 H        -2.525428         1.057395        -0.822419
 H        -1.498713        -1.197375        -1.984284
 H        -0.080569        -0.207946        -2.084410
 H        -0.900075        -3.199721         0.441583
 H         0.584328        -3.119886        -0.263328
 H         0.440702        -2.583878         1.515333
