19
Iteration:   190
 C        -2.821387        -1.583991         1.282364
 C        -1.568462        -0.673555         1.166212
 C        -1.713452         0.490452         0.097587
 C        -1.697515        -0.568342        -1.032962
 C        -0.718198        -1.229168        -0.010746
 C        -0.157337        -2.628241         0.084699
 C         0.392421        -0.045017         0.111611
 O         1.581655        -0.009007         0.173308
 O        -0.418791         1.132586         0.064732
 H        -2.763816        -2.687602         1.257636
 H        -3.494959        -1.452882         2.115552
 H        -3.546113        -1.381204         0.484251
 H        -1.026714        -0.417948         2.064692
 H        -2.504352         1.233071         0.019994
 H        -2.679333        -1.069182        -1.286346
 H        -1.428640        -0.101968        -2.009651
 H        -0.363234        -3.151342         0.976221
 H        -0.673134        -3.180470        -0.707467
 H         0.989361        -2.575091        -0.111846
