19
Iteration:  2424charge 0 multiplicity 1
 C        -3.094447        -1.593677         0.023785
 C        -1.990492        -0.690788         0.500278
 C        -1.565116         0.385163        -0.546894
 C        -0.753650        -0.745165        -1.296497
 C        -0.399606        -1.180235         0.143057
 C         0.002104        -2.561917         0.514010
 C         0.207175         0.021903         0.744086
 O         1.049265         0.170166         1.622008
 O        -0.509345         1.088654         0.102818
 H        -2.923658        -2.001354        -0.997276
 H        -3.328072        -2.362371         0.817972
 H        -4.086733        -1.023653         0.037691
 H        -2.105752        -0.408840         1.561009
 H        -2.348568         1.082353        -0.939348
 H        -1.262300        -1.571111        -1.801502
 H         0.003611        -0.343697        -2.031850
 H        -0.265951        -3.156756        -0.352641
 H         1.044840        -2.707385         0.797109
 H        -0.551002        -2.926909         1.379166
