19
Iteration:  3007
 C        -3.082455        -1.770966        -0.063675
 C        -1.944391        -0.746947         0.508120
 C        -1.639026         0.457593        -0.348379
 C        -0.824871        -0.548834        -1.310886
 C        -0.495565        -1.207754         0.168835
 C        -0.014971        -2.579697         0.525262
 C         0.268552         0.042086         0.663798
 O         1.237973         0.146920         1.341526
 O        -0.597684         1.135356         0.333749
 H        -3.142692        -1.857556        -1.083686
 H        -2.746525        -2.759360         0.256481
 H        -4.024852        -1.600255         0.354863
 H        -2.220700        -0.540493         1.563643
 H        -2.412282         1.211606        -0.760751
 H        -1.519251        -1.134944        -1.895576
 H         0.125408        -0.372468        -1.775211
 H        -0.455787        -3.199144        -0.330489
 H         1.043096        -2.860284         0.659706
 H        -0.410491        -2.800666         1.538029
