19
Iteration:  2477
 C        -3.282689        -1.613372        -0.080532
 C        -2.132180        -0.752144         0.355775
 C        -1.515104         0.282105        -0.628360
 C        -0.630158        -0.626300        -1.226359
 C        -0.522587        -1.203440         0.230556
 C         0.063619        -2.449668         0.720422
 C         0.174131         0.078926         0.750889
 O         1.291822         0.065538         1.294071
 O        -0.572728         1.064338         0.377275
 H        -3.379035        -1.799010        -1.174309
 H        -3.244092        -2.683266         0.348527
 H        -4.216277        -1.054599         0.232849
 H        -2.211729        -0.254252         1.355122
 H        -2.255057         0.991163        -1.034093
 H        -1.255108        -1.213302        -1.874663
 H         0.273739        -0.186949        -1.623469
 H        -0.098681        -3.337290         0.088613
 H         1.098090        -2.303428         0.799305
 H        -0.389350        -2.495130         1.717959
