19
Iteration:   566
 C        -3.096433        -1.482154         1.042265
 C        -1.703145        -0.649355         1.083898
 C        -1.714406         0.462869        -0.088938
 C        -1.478469        -0.722039        -1.086180
 C        -0.648255        -1.214390         0.080447
 C         0.030129        -2.606495         0.093860
 C         0.349827        -0.039231         0.250489
 O         1.494922         0.076499         0.576594
 O        -0.405323         1.065799        -0.021109
 H        -2.844222        -2.571076         1.039976
 H        -3.773746        -1.275121         1.831512
 H        -3.547373        -1.269339         0.072926
 H        -1.278564        -0.289334         2.027538
 H        -2.412589         1.299362        -0.295152
 H        -2.263934        -1.485182        -1.246148
 H        -0.961799        -0.468612        -2.016009
 H        -0.297495        -3.063013        -0.913654
 H         1.161492        -2.607808         0.254549
 H        -0.385916        -3.197488         0.856565
