19
Iteration:  3300
 C        -3.133855        -1.746967         0.355969
 C        -1.984125        -0.791283         0.434364
 C        -1.570895         0.369085        -0.504575
 C        -0.747027        -0.505873        -1.293593
 C        -0.428044        -1.177129         0.008950
 C         0.014795        -2.631079         0.053167
 C         0.237671         0.092191         0.753569
 O         1.149418         0.131753         1.528707
 O        -0.629099         1.146637         0.415986
 H        -3.782900        -1.533912         1.166088
 H        -3.694685        -1.775623        -0.630985
 H        -2.688063        -2.741502         0.404363
 H        -2.003509        -0.352888         1.432739
 H        -2.281633         1.159592        -0.850791
 H        -1.426110        -1.035435        -1.841937
 H         0.196225        -0.143551        -1.714408
 H         0.396246        -3.071778        -0.832947
 H         0.780966        -2.681598         0.808843
 H        -0.801062        -3.239841         0.304035
