19
Iteration:  2863
 C        -3.067709        -1.720388         0.278564
 C        -2.011257        -0.631145         0.440175
 C        -1.560317         0.418815        -0.651665
 C        -0.748263        -0.683497        -1.325244
 C        -0.439237        -1.103123         0.042548
 C         0.098817        -2.507335         0.440105
 C         0.191510        -0.000204         0.723668
 O         0.928828         0.003245         1.696935
 O        -0.532616         1.153950         0.098608
 H        -3.208322        -2.168975         1.239714
 H        -3.974269        -1.268894        -0.082876
 H        -2.690259        -2.522324        -0.366334
 H        -2.076295        -0.014030         1.393732
 H        -1.868383         1.291426        -1.238289
 H        -1.367791        -1.593089        -1.707698
 H         0.032139        -0.460547        -2.012675
 H        -0.506749        -3.399717         0.082101
 H         1.227409        -2.790101         0.069004
 H         0.204004        -2.522849         1.564011
