19
Iteration:  2014charge 0 multiplicity 1
 C        -3.198848        -1.549845         0.030094
 C        -2.018115        -0.707327         0.368518
 C        -1.604349         0.342281        -0.578986
 C        -0.558575        -0.614313        -1.319923
 C        -0.457482        -1.221259         0.201715
 C        -0.039435        -2.661215         0.586702
 C         0.187233        -0.021446         0.807272
 O         1.220757         0.267603         1.385086
 O        -0.639832         1.014886         0.348112
 H        -3.069574        -2.068062        -0.945287
 H        -3.657183        -2.252174         0.738946
 H        -3.994185        -0.838284        -0.155047
 H        -2.153401        -0.347426         1.394344
 H        -2.200933         0.994777        -1.286729
 H        -1.013814        -1.272880        -2.032543
 H         0.421173        -0.295341        -1.688129
 H        -0.320790        -3.480386        -0.037036
 H         1.099496        -2.622277         0.618160
 H        -0.446788        -2.798243         1.569103
