19
Iteration:  2303
 C        -3.155005        -1.526315        -0.138794
 C        -2.023792        -0.822755         0.484252
 C        -1.654097         0.369153        -0.499552
 C        -0.761512        -0.708585        -1.291083
 C        -0.515255        -1.170971         0.151119
 C         0.088586        -2.486397         0.696768
 C         0.200619         0.022266         0.771354
 O         1.180264         0.163534         1.478560
 O        -0.482500         1.012489         0.173786
 H        -3.041879        -1.654141        -1.232817
 H        -3.587824        -2.423798         0.335366
 H        -4.004450        -0.802545        -0.088355
 H        -2.105460        -0.689610         1.559162
 H        -2.340737         1.119487        -0.876822
 H        -1.245724        -1.445069        -2.024765
 H         0.072144        -0.316763        -1.870815
 H        -0.772113        -3.241091         0.748555
 H         0.971594        -2.874103         0.216901
 H         0.423421        -2.267752         1.755325
