19
Iteration:  1870charge 0 multiplicity 1
 C        -3.091285        -1.606885         0.114582
 C        -1.999650        -0.663544         0.505179
 C        -1.569963         0.442014        -0.569752
 C        -0.808474        -0.769521        -1.258058
 C        -0.557008        -1.248579         0.272230
 C        -0.040370        -2.758718         0.383492
 C         0.214874         0.068309         0.751918
 O         1.133297         0.263104         1.522582
 O        -0.411755         1.170099         0.143892
 H        -2.728217        -2.177188        -0.737413
 H        -3.206662        -2.360308         0.851658
 H        -4.112223        -1.269835        -0.098930
 H        -2.139061        -0.157641         1.462281
 H        -2.185090         1.101816        -1.113924
 H        -1.463285        -1.472947        -1.865205
 H         0.013744        -0.524110        -1.869760
 H         1.030502        -2.697395         0.587922
 H        -0.529757        -3.225504         1.283471
 H        -0.313998        -3.352621        -0.506844
