19
Iteration:  4013charge 0 multiplicity 1
 C        -3.022070        -1.813901         0.368808
 C        -1.881279        -0.798687         0.599603
 C        -1.699623         0.459795        -0.185645
 C        -1.036256        -0.380523        -1.312108
 C        -0.517134        -1.148665        -0.063197
 C         0.272136        -2.460387        -0.082383
 C         0.210272         0.046883         0.623488
 O         1.083238        -0.120562         1.432304
 O        -0.525483         1.149177         0.415722
 H        -3.265654        -2.436417         1.257868
 H        -4.015698        -1.483088         0.048191
 H        -2.710744        -2.526481        -0.441271
 H        -1.702353        -0.633565         1.667217
 H        -2.516074         1.228693        -0.219433
 H        -1.836010        -0.990129        -1.837687
 H        -0.497362         0.186626        -2.156055
 H         1.189672        -2.299641        -0.540054
 H         0.440984        -2.755032         0.949318
 H        -0.241074        -3.264752        -0.625435
