19
Iteration:  2680
 C        -3.100473        -1.782988         0.049707
 C        -1.984740        -0.771849         0.439653
 C        -1.584824         0.428260        -0.615231
 C        -0.698484        -0.664282        -1.314080
 C        -0.504585        -1.197037         0.180486
 C        -0.083244        -2.544087         0.584377
 C         0.181173         0.087304         0.710755
 O         1.125582         0.205213         1.485806
 O        -0.427734         1.133902         0.256864
 H        -3.360446        -1.742140        -1.019750
 H        -3.003326        -2.891600         0.323968
 H        -4.052491        -1.489215         0.558935
 H        -2.146614        -0.494814         1.475846
 H        -2.343012         1.207168        -0.956641
 H        -1.374390        -1.416163        -1.884135
 H         0.082948        -0.257562        -1.949316
 H        -0.692805        -3.310378         0.095459
 H         0.917806        -2.745227         0.424894
 H        -0.199558        -2.601521         1.667834
