19
Iteration:  1767charge 0 multiplicity 1
 C        -3.167259        -1.666838         0.052050
 C        -2.100005        -0.668273         0.574536
 C        -1.608974         0.450998        -0.446332
 C        -0.742451        -0.639997        -1.228786
 C        -0.563674        -1.206438         0.276866
 C        -0.070268        -2.675298         0.545158
 C         0.268812         0.058377         0.664574
 O         1.330254         0.152753         1.221824
 O        -0.503336         1.128865         0.224223
 H        -3.290222        -2.467971         0.861423
 H        -4.249271        -1.240692        -0.043230
 H        -2.796943        -2.187667        -0.904016
 H        -2.234937        -0.454741         1.677177
 H        -2.358788         1.103437        -1.036511
 H        -1.243450        -1.399740        -1.849376
 H         0.239015        -0.282227        -1.687046
 H        -0.608066        -3.354925         1.238759
 H        -0.170553        -3.120588        -0.435187
 H         0.978733        -2.582023         0.828491
