19
Iteration:  1500charge 0 multiplicity 1
 C        -3.225041        -1.436418         0.282445
 C        -1.882786        -0.781531         0.678196
 C        -1.681945         0.409455        -0.345556
 C        -1.123717        -0.620661        -1.309659
 C        -0.468676        -1.280174         0.111262
 C         0.104027        -2.660861         0.394543
 C         0.359414        -0.005475         0.588882
 O         1.347115         0.285269         1.233903
 O        -0.538279         0.937555         0.228328
 H        -3.063200        -2.551389         0.000131
 H        -3.940470        -1.563964         1.046774
 H        -3.611402        -1.023040        -0.683109
 H        -1.889376        -0.445782         1.717690
 H        -2.400443         1.229023        -0.495889
 H        -1.666109        -1.262640        -1.949827
 H        -0.331147        -0.081626        -1.963712
 H        -0.320602        -3.175696         1.230289
 H        -0.206166        -3.230755        -0.500807
 H         1.205775        -2.612018         0.444303
