19
Iteration:  4138
 C        -3.013023        -1.760410        -0.025105
 C        -1.961961        -0.913311         0.561059
 C        -1.762395         0.458730        -0.097137
 C        -1.035841        -0.378415        -1.194801
 C        -0.494978        -1.151063         0.083261
 C         0.178576        -2.528660         0.149670
 C         0.201873         0.034676         0.697317
 O         1.363246         0.073765         0.981979
 O        -0.634860         1.078678         0.690901
 H        -2.881130        -2.761723         0.480830
 H        -4.103683        -1.451849         0.294267
 H        -3.009398        -2.006253        -1.119843
 H        -2.030855        -0.871734         1.719703
 H        -2.468950         1.253296        -0.283585
 H        -1.556817        -1.079727        -1.861020
 H        -0.304132         0.337512        -1.631785
 H         1.244021        -2.579985        -0.182013
 H         0.231637        -2.873895         1.198567
 H        -0.435908        -3.201375        -0.421749
