19
Iteration:  1644
 C        -3.238128        -1.525740         0.284714
 C        -2.022457        -0.645671         0.619579
 C        -1.628206         0.425946        -0.450788
 C        -0.903656        -0.732341        -1.280284
 C        -0.551158        -1.225058         0.156276
 C         0.193721        -2.693627         0.288649
 C         0.235372        -0.028498         0.732291
 O         1.238295         0.121991         1.366685
 O        -0.466266         1.179563         0.158745
 H        -3.815530        -1.322817        -0.701491
 H        -3.000128        -2.636027         0.146121
 H        -3.849395        -1.607031         1.195862
 H        -2.226146        -0.224370         1.619380
 H        -2.261051         1.183271        -0.803245
 H        -1.752844        -1.329102        -1.825707
 H        -0.041228        -0.629820        -1.944246
 H         0.361934        -2.924466        -0.705843
 H         1.258938        -2.508449         0.605963
 H        -0.363617        -3.381035         0.847807
