19
Iteration:  4820charge 0 multiplicity 1
 C        -3.097943        -1.851108         0.136292
 C        -2.061530        -0.798882         0.625687
 C        -1.708775         0.438995        -0.152220
 C        -1.036312        -0.347515        -1.344642
 C        -0.412788        -1.167465        -0.026703
 C         0.264581        -2.443915         0.021725
 C         0.277131        -0.037090         0.640764
 O         1.229848         0.003438         1.358694
 O        -0.575147         1.080933         0.545005
 H        -2.994756        -2.752933         0.698201
 H        -4.040108        -1.355644         0.238324
 H        -2.911289        -2.075280        -0.861216
 H        -2.070473        -0.607608         1.645619
 H        -2.420530         1.234055        -0.421301
 H        -1.814250        -0.910583        -1.884387
 H        -0.418922         0.318303        -1.984840
 H        -0.171382        -3.241466        -0.630111
 H         1.352973        -2.397324        -0.090498
 H         0.007217        -2.741746         1.077108
