19
Iteration:   544
 C        -2.939820        -1.502275         1.111060
 C        -1.755941        -0.575548         0.907685
 C        -1.861405         0.390081        -0.161291
 C        -1.506267        -0.680954        -1.145595
 C        -0.596040        -1.159426         0.041731
 C        -0.019665        -2.590236         0.164631
 C         0.408010        -0.014972         0.242224
 O         1.551062        -0.046216         0.605211
 O        -0.453591         1.087931         0.067526
 H        -2.589291        -2.559142         1.078948
 H        -3.290171        -1.296378         2.094902
 H        -3.756438        -1.323178         0.397605
 H        -1.308472        -0.077673         1.758987
 H        -2.645581         1.183267        -0.226546
 H        -2.383982        -1.352864        -1.220502
 H        -1.007461        -0.459838        -2.097571
 H         0.319182        -2.885489        -0.903275
 H         0.819687        -2.706153         0.921180
 H        -0.762930        -3.253301         0.513851
