19
Iteration:  1307charge 0 multiplicity 1
 C        -3.159674        -1.668167         0.552806
 C        -1.899626        -0.759423         0.686982
 C        -1.604327         0.489303        -0.263348
 C        -1.076357        -0.537042        -1.294769
 C        -0.546940        -1.209841        -0.011591
 C         0.021255        -2.531163         0.378263
 C         0.268641        -0.013951         0.574852
 O         1.419914         0.024787         0.882280
 O        -0.538112         1.075244         0.313375
 H        -4.004876        -1.081186         0.053745
 H        -3.091293        -2.666828         0.001554
 H        -3.575578        -1.818841         1.593146
 H        -1.909522        -0.378554         1.767561
 H        -2.314071         1.247319        -0.604132
 H        -1.844431        -1.046354        -1.857232
 H        -0.226764        -0.186894        -1.922018
 H        -0.425509        -2.876360         1.308708
 H        -0.122614        -3.353334        -0.406228
 H         1.066397        -2.340088         0.483953
