19
Iteration:  1469
 C        -3.208505        -1.626924         0.477777
 C        -1.891060        -0.776996         0.664905
 C        -1.613260         0.473721        -0.458194
 C        -0.942240        -0.699870        -1.234911
 C        -0.526680        -1.216408         0.107135
 C        -0.007485        -2.579185         0.257365
 C         0.252634         0.082422         0.623180
 O         1.315799         0.090673         1.203094
 O        -0.512232         1.148271         0.210991
 H        -3.020613        -2.749930         0.460043
 H        -3.965100        -1.383010         1.200416
 H        -3.617867        -1.452959        -0.534421
 H        -1.922733        -0.434373         1.727142
 H        -2.302501         1.180966        -0.866760
 H        -1.509129        -1.421242        -1.869934
 H        -0.015707        -0.307852        -1.812639
 H        -0.805755        -3.299594         0.496840
 H         0.553685        -2.888272        -0.765128
 H         0.679211        -2.603900         1.131927
