19
Iteration:    58charge 0 multiplicity 1
 C        -2.800744        -1.569437         1.583028
 C        -1.548853        -0.722196         1.150356
 C        -1.807334         0.468965         0.088948
 C        -1.693681        -0.456403        -1.109393
 C        -0.638863        -1.211338         0.039290
 C        -0.145762        -2.645439        -0.056354
 C         0.349760        -0.019291         0.102909
 O         1.525704        -0.087885         0.102623
 O        -0.425693         1.141333         0.019657
 H        -2.890525        -1.652136         2.698005
 H        -3.600216        -1.116350         1.044653
 H        -2.660990        -2.560385         1.089483
 H        -0.993806        -0.337920         1.984682
 H        -2.564587         1.243824         0.347425
 H        -2.433674        -1.266209        -1.453305
 H        -1.195717         0.143627        -1.914304
 H         0.696247        -2.718553        -0.637977
 H         0.099504        -3.074838         0.923618
 H        -0.931019        -3.318185        -0.633589
