19
Iteration:  3965
 C        -3.179772        -1.801792         0.117500
 C        -1.960444        -0.960894         0.592501
 C        -1.670130         0.474703        -0.083592
 C        -0.895515        -0.380873        -1.234295
 C        -0.448969        -1.200593         0.082675
 C         0.089844        -2.635568        -0.034223
 C         0.251922         0.021502         0.705312
 O         1.372058         0.258169         1.139757
 O        -0.648211         1.115570         0.617146
 H        -3.472404        -2.463319         0.931957
 H        -4.098829        -1.266103        -0.086282
 H        -3.122261        -2.492252        -0.697125
 H        -2.179730        -0.844209         1.684476
 H        -2.383319         1.214642        -0.366176
 H        -1.453632        -0.949943        -2.052332
 H        -0.005402        -0.083235        -1.762555
 H         1.060903        -2.551946        -0.704132
 H         0.250257        -3.277297         0.920368
 H        -0.728694        -3.114616        -0.670312
