19
Iteration:  4128charge 0 multiplicity 1
 C        -3.060616        -1.820038         0.016747
 C        -1.995847        -0.844444         0.639685
 C        -1.711013         0.373835        -0.130186
 C        -0.967743        -0.291503        -1.209553
 C        -0.514969        -1.199037         0.081355
 C         0.161259        -2.556422         0.080273
 C         0.236266        -0.024766         0.712027
 O         1.368852         0.163333         1.077541
 O        -0.640888         1.077238         0.627417
 H        -2.912028        -2.869149         0.384558
 H        -4.071653        -1.451432         0.430579
 H        -3.134301        -1.737904        -1.098394
 H        -1.921016        -0.841656         1.767395
 H        -2.481062         1.016946        -0.524126
 H        -1.766258        -0.709194        -1.841886
 H        -0.354529         0.177407        -1.937401
 H         1.133651        -2.612530        -0.480698
 H         0.271363        -2.815582         1.178371
 H        -0.490764        -3.314866        -0.385885
