19
Iteration:  1622
 C        -3.142631        -1.585705         0.251077
 C        -1.932794        -0.721482         0.623023
 C        -1.662990         0.372148        -0.353495
 C        -0.888948        -0.602515        -1.243248
 C        -0.524566        -1.205446         0.146164
 C        -0.028031        -2.592707         0.331680
 C         0.306327        -0.025191         0.612645
 O         1.251015         0.218478         1.303367
 O        -0.482604         1.022829         0.191006
 H        -3.168099        -1.446781        -0.863708
 H        -3.166848        -2.689587         0.333804
 H        -4.091094        -1.284047         0.705674
 H        -1.934745        -0.455425         1.692535
 H        -2.389584         1.036310        -0.721437
 H        -1.651858        -1.238154        -1.791160
 H        -0.030792        -0.396210        -1.858282
 H         0.463836        -2.936071        -0.521327
 H         0.737398        -2.646278         1.137150
 H        -0.886979        -3.131005         0.606889
