19
Iteration:  2161
 C        -3.273822        -1.590066         0.129946
 C        -2.041478        -0.672077         0.409549
 C        -1.484215         0.395481        -0.652571
 C        -0.631677        -0.777060        -1.318948
 C        -0.504126        -1.169811         0.228086
 C         0.189239        -2.470880         0.494170
 C         0.150956         0.026756         0.778782
 O         1.011684         0.025050         1.598741
 O        -0.525465         1.127759         0.145378
 H        -3.309108        -2.181699        -0.771966
 H        -3.506219        -2.236713         0.920167
 H        -4.128120        -0.959848         0.037673
 H        -2.122359        -0.304420         1.448613
 H        -2.045427         1.131940        -1.123089
 H        -1.101880        -1.559781        -2.010097
 H         0.309621        -0.451578        -1.786745
 H        -0.450151        -3.256183        -0.067865
 H         1.188772        -2.366719         0.092459
 H         0.206720        -2.827708         1.577589
