19
Iteration:  2331charge 0 multiplicity 1
 C        -3.117102        -1.651980        -0.017719
 C        -2.016369        -0.700632         0.431984
 C        -1.555360         0.472003        -0.611344
 C        -0.853236        -0.683724        -1.299864
 C        -0.540505        -1.216732         0.180212
 C         0.134683        -2.621634         0.666561
 C         0.241328         0.005732         0.655886
 O         0.995526         0.108577         1.604551
 O        -0.418608         1.157662         0.180221
 H        -3.070335        -1.922234        -1.081294
 H        -3.346457        -2.493078         0.651944
 H        -4.041599        -1.083008         0.096331
 H        -2.081682        -0.433019         1.506335
 H        -2.095370         1.166152        -1.275397
 H        -1.508762        -1.273432        -1.920621
 H         0.025061        -0.381277        -1.888241
 H        -0.591033        -3.400958         0.737096
 H         0.978991        -2.929442         0.015893
 H         0.661258        -2.402866         1.583654
