19
Iteration:  1735charge 0 multiplicity 1
 C        -3.071041        -1.648783         0.170142
 C        -1.966537        -0.687494         0.581265
 C        -1.600639         0.422883        -0.456078
 C        -0.892582        -0.729573        -1.288075
 C        -0.544269        -1.163975         0.112423
 C        -0.151873        -2.549569         0.412143
 C         0.282857         0.026900         0.733733
 O         1.294775         0.194737         1.381712
 O        -0.501429         1.073627         0.210344
 H        -3.703852        -1.840284         1.049922
 H        -3.740823        -1.343506        -0.720089
 H        -2.517200        -2.593906        -0.074143
 H        -1.973216        -0.341002         1.644815
 H        -2.208118         1.122460        -1.153320
 H        -1.520268        -1.474094        -1.757277
 H        -0.006274        -0.668835        -1.999321
 H        -0.884780        -3.310031         0.768649
 H         0.195430        -3.029625        -0.498871
 H         0.684059        -2.510733         1.128154
