19
Iteration:   986
 C        -3.041144        -1.654916         0.986917
 C        -1.781055        -0.696058         0.764954
 C        -1.691685         0.451281        -0.273137
 C        -1.211889        -0.625957        -1.327952
 C        -0.541009        -1.168931        -0.023527
 C        -0.169639        -2.533570         0.078277
 C         0.322553        -0.030806         0.469836
 O         1.475882         0.039716         0.825275
 O        -0.503531         1.128915         0.302093
 H        -3.138554        -1.898185         2.087048
 H        -4.028955        -1.362370         0.528819
 H        -2.750394        -2.633749         0.485907
 H        -1.509492        -0.491960         1.835006
 H        -2.319413         1.330294        -0.373436
 H        -2.034527        -1.294231        -1.679830
 H        -0.553583        -0.355279        -2.131411
 H         0.787464        -2.573801        -0.479962
 H         0.065003        -2.868001         1.085716
 H        -1.010852        -3.101103        -0.476581
