19
Iteration:   901charge 0 multiplicity 1
 C        -3.137196        -1.408762         0.782264
 C        -1.862328        -0.742613         0.969241
 C        -1.771321         0.400378        -0.043462
 C        -1.374357        -0.597578        -1.220950
 C        -0.524195        -1.248246         0.059758
 C         0.139108        -2.628346         0.145868
 C         0.375286        -0.006900         0.299342
 O         1.528342         0.029104         0.658233
 O        -0.507630         1.093884         0.213967
 H        -3.483138        -2.010157         1.649381
 H        -3.874459        -0.778595         0.337358
 H        -3.161696        -2.282583         0.087589
 H        -1.645011        -0.415118         1.998746
 H        -2.502637         1.167907        -0.084144
 H        -2.215346        -1.239132        -1.599498
 H        -0.814504        -0.207027        -2.069307
 H        -0.123272        -2.951657         1.174280
 H        -0.196026        -3.457380        -0.565162
 H         1.245305        -2.670559         0.228662
