19
Iteration:  1662charge 0 multiplicity 1
 C        -3.285843        -1.523585         0.358573
 C        -2.029306        -0.651840         0.533167
 C        -1.573657         0.394395        -0.565583
 C        -0.917111        -0.758768        -1.249374
 C        -0.470296        -1.182775         0.145055
 C         0.219546        -2.453262         0.268144
 C         0.254481         0.030199         0.682279
 O         1.208505        -0.024906         1.430127
 O        -0.524494         1.070192         0.202815
 H        -4.067998        -0.955805        -0.199835
 H        -3.026646        -2.419548        -0.143649
 H        -3.736078        -1.747036         1.366206
 H        -1.983363        -0.198995         1.519685
 H        -2.235631         1.169296        -1.025881
 H        -1.527244        -1.521762        -1.630834
 H        -0.267562        -0.406389        -2.093176
 H         0.105775        -3.185291        -0.606174
 H         1.272781        -2.306411         0.491562
 H        -0.164429        -3.068869         1.173290
