19
Iteration:  4415
 C        -3.015409        -1.857025         0.009948
 C        -2.040440        -0.886834         0.511702
 C        -1.761078         0.472983        -0.153233
 C        -0.934657        -0.289080        -1.346208
 C        -0.509467        -1.156838         0.038940
 C         0.182161        -2.500498         0.180469
 C         0.208864         0.053596         0.700212
 O         1.357445        -0.009628         1.055409
 O        -0.659618         1.086247         0.807618
 H        -3.297013        -2.669343         0.703824
 H        -3.945961        -1.335369        -0.111110
 H        -2.642316        -2.409624        -0.924048
 H        -2.238321        -0.699398         1.608500
 H        -2.519531         1.229291        -0.390280
 H        -1.409989        -0.764347        -2.188460
 H        -0.052371         0.217842        -1.588619
 H        -0.379672        -3.344298         0.123329
 H         0.995796        -2.625821        -0.490625
 H         0.448044        -2.521903         1.202300
