19
Iteration:  3422charge 0 multiplicity 1
 C        -3.166068        -1.731309         0.102527
 C        -1.990522        -0.885229         0.501781
 C        -1.698690         0.414484        -0.338047
 C        -0.774289        -0.477038        -1.180332
 C        -0.541489        -1.207847         0.171316
 C         0.008335        -2.565621         0.216415
 C         0.217822         0.025286         0.785316
 O         1.389109         0.224899         1.061347
 O        -0.588198         1.082229         0.555347
 H        -3.362363        -1.862083        -0.997342
 H        -3.115181        -2.798930         0.496120
 H        -4.056514        -1.317611         0.617319
 H        -2.244076        -0.550709         1.566486
 H        -2.403525         1.140749        -0.711132
 H        -1.023207        -1.189620        -2.040923
 H         0.078017         0.026718        -1.680270
 H         1.066786        -2.481624         0.517424
 H        -0.604054        -3.189707         0.957727
 H        -0.121287        -3.218270        -0.649591
