19
Iteration:  4714charge 0 multiplicity 1
 C        -2.984918        -1.795795         0.164564
 C        -1.898363        -0.859496         0.602060
 C        -1.678458         0.411228        -0.246821
 C        -0.959953        -0.343514        -1.301851
 C        -0.531081        -1.147332        -0.069446
 C         0.125748        -2.522124        -0.059478
 C         0.252801         0.065616         0.774096
 O         1.241287        -0.018002         1.433014
 O        -0.666833         1.105137         0.504909
 H        -2.807477        -2.826792         0.569109
 H        -3.987658        -1.446461         0.688424
 H        -3.077007        -1.839456        -0.965625
 H        -2.255711        -0.517890         1.672870
 H        -2.506546         1.135017        -0.313014
 H        -1.628391        -0.847862        -1.992444
 H        -0.268002         0.096540        -1.981800
 H        -0.501496        -3.442821        -0.060313
 H         0.923504        -2.599171        -0.793718
 H         0.692612        -2.470643         0.870329
