19
Iteration:  2376
 C        -3.125862        -1.696952         0.341787
 C        -1.983406        -0.657602         0.348046
 C        -1.517454         0.437386        -0.782959
 C        -0.514275        -0.655081        -1.286269
 C        -0.480411        -1.214661         0.151629
 C        -0.071422        -2.689096         0.375305
 C         0.156599         0.082554         0.768903
 O         0.973416         0.159394         1.644202
 O        -0.537196         1.118003         0.182964
 H        -3.113385        -2.329534        -0.578601
 H        -3.148538        -2.222539         1.351443
 H        -4.120430        -1.271371         0.425374
 H        -2.127651         0.106968         1.160418
 H        -1.907408         1.347692        -1.132399
 H        -0.978191        -1.423192        -1.995877
 H         0.446296        -0.545257        -1.677754
 H        -0.914599        -3.244759        -0.072406
 H         0.856900        -2.879033        -0.088273
 H         0.140745        -2.911174         1.424638
