19
Iteration:  2872charge 0 multiplicity 1
 C        -3.032662        -1.663262         0.255847
 C        -1.954393        -0.628830         0.409544
 C        -1.538572         0.389016        -0.666875
 C        -0.818507        -0.722318        -1.399020
 C        -0.469342        -1.161009         0.074299
 C         0.085742        -2.527854         0.401918
 C         0.190008         0.017276         0.744292
 O         0.948184         0.122395         1.681907
 O        -0.510004         1.089448         0.210799
 H        -3.495475        -1.963900         1.204957
 H        -3.764417        -1.257444        -0.351947
 H        -2.711883        -2.557930        -0.281574
 H        -2.054830        -0.166400         1.448903
 H        -2.226914         1.085047        -1.039351
 H        -1.383781        -1.628659        -1.776818
 H         0.113105        -0.448875        -1.946543
 H        -0.650144        -3.267794         0.137666
 H         1.160428        -2.777338         0.024501
 H         0.134344        -2.497888         1.505571
