19
Iteration:  1234charge 0 multiplicity 1
 C        -3.222078        -1.535936         0.738126
 C        -1.954937        -0.685150         0.741376
 C        -1.752530         0.387371        -0.272560
 C        -1.065238        -0.596135        -1.275115
 C        -0.516450        -1.212155         0.032697
 C         0.126924        -2.619525         0.152970
 C         0.355478        -0.002730         0.495293
 O         1.453854         0.029590         1.003769
 O        -0.546674         1.101779         0.223983
 H        -3.595659        -1.700300        -0.228218
 H        -3.104954        -2.482184         1.279930
 H        -3.997243        -0.891916         1.120482
 H        -1.807035        -0.463722         1.761672
 H        -2.391355         1.213878        -0.567197
 H        -1.894044        -1.218504        -1.756285
 H        -0.417711        -0.162322        -2.013086
 H         0.060132        -2.998155        -0.894682
 H         1.140582        -2.666830         0.454146
 H        -0.464832        -3.223646         0.876811
