19
Iteration:  3815charge 0 multiplicity 1
 C        -3.153350        -1.764226         0.387595
 C        -1.981673        -0.843536         0.739153
 C        -1.742395         0.392388        -0.238879
 C        -0.912266        -0.389556        -1.377032
 C        -0.303665        -1.133954        -0.077066
 C         0.183257        -2.536478        -0.306967
 C         0.215991        -0.025459         0.782264
 O         1.120574         0.110805         1.575416
 O        -0.509346         1.091620         0.338721
 H        -2.960953        -2.618030        -0.352292
 H        -3.472517        -2.257879         1.331027
 H        -4.131153        -1.342109        -0.009420
 H        -2.089176        -0.585168         1.779555
 H        -2.518135         1.133521        -0.385385
 H        -1.500380        -1.167577        -1.994674
 H        -0.080178         0.152536        -1.775607
 H         1.048412        -2.442069        -0.903470
 H         0.523631        -3.022814         0.631603
 H        -0.582609        -3.136339        -0.797425
