19
Iteration:  2520
 C        -3.069194        -1.651556        -0.102169
 C        -2.017455        -0.755636         0.468141
 C        -1.568503         0.308560        -0.573852
 C        -0.670478        -0.648072        -1.210980
 C        -0.559045        -1.202544         0.263017
 C        -0.210006        -2.610730         0.619600
 C         0.223973         0.081334         0.755134
 O         1.277766         0.321495         1.322537
 O        -0.546094         1.032085         0.335340
 H        -2.721763        -1.959738        -1.090089
 H        -3.135911        -2.642925         0.439584
 H        -4.030371        -1.086675        -0.120440
 H        -2.254804        -0.345131         1.517559
 H        -2.100462         0.968395        -1.374736
 H        -1.170213        -1.362943        -1.879691
 H         0.226368        -0.156647        -1.607802
 H        -1.031008        -3.295013         0.169435
 H         0.664730        -2.975401         0.113244
 H        -0.017020        -2.710262         1.732674
