19
Iteration:   323
 C        -2.875830        -1.459710         1.226379
 C        -1.696512        -0.530274         1.122503
 C        -1.808613         0.454753        -0.005475
 C        -1.677896        -0.696062        -1.055575
 C        -0.606164        -1.263223         0.024882
 C        -0.102932        -2.658531         0.034953
 C         0.464039        -0.045590         0.061210
 O         1.634802        -0.016958         0.344391
 O        -0.492330         1.133612         0.147760
 H        -3.547982        -1.273967         0.401814
 H        -2.464186        -2.516676         1.021146
 H        -3.434634        -1.387750         2.172664
 H        -1.247255        -0.201124         2.061992
 H        -2.620222         1.131414        -0.118485
 H        -2.578889        -1.319125        -1.269128
 H        -1.203702        -0.551203        -2.126589
 H         0.145419        -3.000520        -1.052143
 H         0.888655        -2.670592         0.590131
 H        -0.866371        -3.352562         0.542355
