19
Iteration:  1475
 C        -3.233595        -1.601107         0.425445
 C        -1.906684        -0.801279         0.657449
 C        -1.604353         0.417182        -0.398035
 C        -0.955250        -0.701012        -1.212910
 C        -0.506294        -1.224904         0.069635
 C         0.024407        -2.643334         0.254596
 C         0.265238         0.083912         0.621284
 O         1.314503         0.138285         1.208973
 O        -0.501722         1.184841         0.203846
 H        -3.221415        -2.698931         0.416939
 H        -3.934688        -1.445126         1.277986
 H        -3.628628        -1.310127        -0.570046
 H        -1.850882        -0.364952         1.651642
 H        -2.275002         1.262190        -0.747607
 H        -1.459229        -1.463155        -1.780816
 H        -0.271141        -0.215849        -1.905490
 H        -0.814689        -3.240856         0.639876
 H         0.349823        -3.101577        -0.596918
 H         0.794002        -2.601061         1.037853
