19
Iteration:   649
 C        -3.027774        -1.681250         1.026468
 C        -1.864081        -0.687088         0.967128
 C        -1.795598         0.502290        -0.106955
 C        -1.329488        -0.462979        -1.153003
 C        -0.617874        -1.162501         0.075394
 C        -0.056287        -2.566209         0.234577
 C         0.363651        -0.080873         0.332499
 O         1.576776        -0.051069         0.422276
 O        -0.419307         1.099382         0.114014
 H        -3.056492        -2.151297         1.998528
 H        -4.016267        -1.181835         0.777638
 H        -3.036292        -2.475672         0.259007
 H        -1.700521        -0.082735         1.885232
 H        -2.516074         1.359956        -0.274332
 H        -2.097028        -1.173069        -1.439357
 H        -0.817484        -0.199778        -2.131416
 H        -0.478005        -3.171553         1.003958
 H        -0.186496        -3.162908        -0.678082
 H         1.017991        -2.533699         0.512425
