19
Iteration:  4078
 C        -3.063112        -1.811807         0.421298
 C        -1.871633        -0.839376         0.622484
 C        -1.677713         0.510600        -0.300267
 C        -0.967617        -0.393817        -1.343826
 C        -0.442338        -1.135241        -0.011879
 C         0.195686        -2.565427        -0.202778
 C         0.207334         0.033094         0.751376
 O         1.183713         0.026817         1.464456
 O        -0.694845         1.093360         0.451093
 H        -2.817796        -2.865573         0.519419
 H        -3.943108        -1.554586         0.935837
 H        -3.242512        -1.640641        -0.643402
 H        -1.700332        -0.535765         1.656597
 H        -2.352690         1.374042        -0.572009
 H        -1.483608        -1.130066        -1.993793
 H        -0.182210         0.022321        -2.063509
 H         0.856584        -2.550465        -1.036224
 H         0.762526        -2.938875         0.667501
 H        -0.607850        -3.338640        -0.294695
