19
Iteration:  2519charge 0 multiplicity 1
 C        -3.070692        -1.640176        -0.102054
 C        -2.015518        -0.758592         0.465926
 C        -1.567709         0.305022        -0.573467
 C        -0.653890        -0.646980        -1.202526
 C        -0.554361        -1.211674         0.255674
 C        -0.207593        -2.609680         0.622483
 C         0.207076         0.075565         0.752674
 O         1.274471         0.322886         1.313172
 O        -0.548024         1.037328         0.339924
 H        -2.736837        -1.939913        -1.078686
 H        -3.125930        -2.614470         0.443789
 H        -4.014266        -1.114366        -0.099212
 H        -2.268364        -0.357936         1.512306
 H        -2.101788         1.004943        -1.326532
 H        -1.188293        -1.359438        -1.904832
 H         0.223080        -0.182455        -1.625124
 H        -1.041698        -3.312471         0.165773
 H         0.688327        -2.985486         0.141866
 H        -0.017274        -2.716230         1.748435
