19
Iteration:   800
 C        -3.066644        -1.560274         0.935222
 C        -1.777516        -0.721967         0.882458
 C        -1.778043         0.444023        -0.125151
 C        -1.476173        -0.538455        -1.170990
 C        -0.570762        -1.196301         0.009766
 C        -0.002089        -2.680482         0.204582
 C         0.452204         0.054666         0.259977
 O         1.548879        -0.002002         0.796662
 O        -0.457115         1.139446        -0.005615
 H        -2.835457        -2.604311         1.088108
 H        -3.702138        -1.327394         1.845811
 H        -3.685864        -1.597622         0.031409
 H        -1.417337        -0.471741         1.900266
 H        -2.644819         1.171930        -0.155052
 H        -2.197121        -1.255542        -1.440163
 H        -0.902764        -0.065747        -1.979267
 H         0.480326        -3.178808        -0.603892
 H         0.679697        -2.840073         1.028683
 H        -0.910280        -3.300988         0.684865
