19
Iteration:  2146charge 0 multiplicity 1
 C        -3.321115        -1.501595         0.202702
 C        -2.026443        -0.675579         0.353562
 C        -1.492355         0.326901        -0.660374
 C        -0.426436        -0.753832        -1.231487
 C        -0.585305        -1.274077         0.178457
 C         0.161410        -2.562970         0.407007
 C         0.072589        -0.004931         0.790558
 O         0.990539         0.136738         1.541303
 O        -0.526252         1.144338         0.225499
 H        -3.269630        -2.042463        -0.748963
 H        -3.292032        -2.212099         1.119109
 H        -4.220884        -0.845816         0.247645
 H        -2.252229        -0.067759         1.240847
 H        -2.230171         0.889556        -1.314470
 H        -0.906336        -1.459793        -1.834848
 H         0.553472        -0.409767        -1.615984
 H        -0.365757        -3.411728         0.071256
 H         1.060190        -2.583032        -0.251837
 H         0.581825        -2.660517         1.384588
