19
Iteration:  4755
 C        -3.062795        -1.840883         0.419693
 C        -1.929312        -0.798021         0.514461
 C        -1.647355         0.400484        -0.337010
 C        -0.908969        -0.346091        -1.341358
 C        -0.519675        -1.178684        -0.015881
 C         0.186591        -2.496444        -0.290524
 C         0.219547        -0.075497         0.820038
 O         1.135715         0.071289         1.596312
 O        -0.592639         1.130623         0.428997
 H        -2.915407        -2.708093         1.055243
 H        -3.979549        -1.372896         0.782125
 H        -3.407405        -2.129454        -0.538059
 H        -1.802267        -0.673332         1.567044
 H        -2.409422         1.121318        -0.706944
 H        -1.568342        -0.907140        -2.044828
 H        -0.133628         0.294374        -1.804768
 H        -0.539920        -3.209448        -0.777875
 H         1.135842        -2.399940        -0.830198
 H         0.555951        -2.884292         0.721573
