19
Iteration:    46charge 0 multiplicity 1
 C        -2.735155        -1.599586         1.613484
 C        -1.640672        -0.631228         1.153484
 C        -1.851328         0.507767         0.089890
 C        -1.590214        -0.506055        -1.124009
 C        -0.655234        -1.143788        -0.022464
 C        -0.131339        -2.555050        -0.083605
 C         0.343090        -0.094523         0.057016
 O         1.546475        -0.112676         0.062694
 O        -0.451045         1.057253         0.122968
 H        -2.852989        -1.522987         2.707005
 H        -3.725072        -1.355274         1.306714
 H        -2.608601        -2.678643         1.435207
 H        -1.133645        -0.248842         2.020796
 H        -2.567466         1.353496         0.096669
 H        -2.428050        -1.136730        -1.533312
 H        -1.003061        -0.109145        -1.960335
 H         0.870121        -2.696782        -0.304288
 H        -0.400188        -3.029408         0.860888
 H        -0.846560        -3.085647        -0.816536
