19
Iteration:  2021
 C        -3.198232        -1.613988         0.031229
 C        -2.087374        -0.735784         0.310479
 C        -1.550528         0.355536        -0.624247
 C        -0.595383        -0.645425        -1.331748
 C        -0.451721        -1.186287         0.198986
 C        -0.001425        -2.607159         0.605711
 C         0.207490        -0.007958         0.791277
 O         1.238931         0.193415         1.391414
 O        -0.641625         1.116883         0.407845
 H        -3.177001        -2.233904        -0.923869
 H        -3.401108        -2.229388         0.927797
 H        -4.080880        -0.876734        -0.210663
 H        -2.276851        -0.315952         1.303393
 H        -2.158252         1.041739        -1.165088
 H        -1.114373        -1.355611        -2.065659
 H         0.384079        -0.365705        -1.655032
 H        -0.541897        -3.405096         0.045818
 H         1.029015        -2.820285         0.596173
 H        -0.406502        -2.766151         1.629226
