19
Iteration:  4656
 C        -3.076063        -1.761081        -0.048407
 C        -1.974324        -0.884458         0.545068
 C        -1.728629         0.444213        -0.192846
 C        -0.946895        -0.383117        -1.264213
 C        -0.526886        -1.166920         0.097205
 C         0.193021        -2.459631         0.151974
 C         0.236248        -0.065453         0.773723
 O         1.375925         0.095004         1.040117
 O        -0.685807         1.048162         0.739713
 H        -3.266964        -2.650402         0.577222
 H        -3.988493        -1.187692        -0.027504
 H        -3.041180        -2.148075        -1.051242
 H        -2.280647        -0.621200         1.594528
 H        -2.485667         1.230852        -0.273285
 H        -1.354566        -1.187321        -1.837449
 H        -0.195086         0.309915        -1.648831
 H        -0.455064        -3.221597        -0.296963
 H         1.125979        -2.426600        -0.440575
 H         0.468649        -2.733601         1.231567
