19
Iteration:  3740charge 0 multiplicity 1
 C        -3.074598        -1.844954         0.115989
 C        -1.954116        -0.883629         0.567973
 C        -1.725555         0.465315        -0.110134
 C        -0.927591        -0.354367        -1.303818
 C        -0.553872        -1.164865        -0.024629
 C         0.145219        -2.484953         0.188654
 C         0.198585         0.011387         0.671404
 O         1.260057         0.020797         1.244649
 O        -0.515154         1.123917         0.463151
 H        -3.674568        -1.554587        -0.815870
 H        -2.781716        -2.866119        -0.155142
 H        -3.862436        -1.841250         0.914566
 H        -1.983350        -0.850571         1.672800
 H        -2.473658         1.239111        -0.209228
 H        -1.610031        -0.971543        -1.945427
 H        -0.206533         0.275440        -1.713653
 H         1.006455        -2.594404        -0.603736
 H         0.701576        -2.392965         1.201566
 H        -0.643334        -3.346295         0.113323
