19
Iteration:  2348
 C        -3.132037        -1.645712         0.137325
 C        -2.017205        -0.628932         0.421817
 C        -1.508502         0.369337        -0.621704
 C        -0.664370        -0.697731        -1.346723
 C        -0.489300        -1.170185         0.135546
 C         0.030245        -2.465416         0.505913
 C         0.118270         0.016082         0.817618
 O         1.017083         0.065013         1.628559
 O        -0.479603         1.061896         0.116157
 H        -3.005128        -2.105179        -0.838659
 H        -2.993917        -2.430854         0.900027
 H        -4.191903        -1.296912         0.207334
 H        -2.208643        -0.076160         1.351033
 H        -2.139552         1.223387        -0.995158
 H        -1.203941        -1.449636        -1.934408
 H         0.231331        -0.489093        -2.003415
 H        -0.799442        -3.207539         0.554495
 H         0.855507        -2.760358        -0.220538
 H         0.491453        -2.427492         1.515603
