19
Iteration:  1896charge 0 multiplicity 1
 C        -3.125953        -1.623607         0.291572
 C        -1.963266        -0.714627         0.386596
 C        -1.547341         0.399750        -0.645826
 C        -0.652120        -0.685307        -1.380442
 C        -0.451073        -1.198033         0.086771
 C        -0.150206        -2.550782         0.465275
 C         0.244207        -0.015233         0.745240
 O         1.087390         0.218075         1.568591
 O        -0.523243         1.048014         0.242693
 H        -3.303085        -2.078244        -0.693776
 H        -2.841589        -2.529999         0.897653
 H        -4.040828        -1.257005         0.678394
 H        -1.974087        -0.261714         1.409096
 H        -2.115352         1.103108        -1.343435
 H        -1.213770        -1.300649        -2.118089
 H         0.204576        -0.255881        -2.033276
 H         0.895524        -2.883179         0.276119
 H        -0.316136        -2.590212         1.643281
 H        -0.887082        -3.205804        -0.037499
