19
Iteration:  4139charge 0 multiplicity 1
 C        -3.014453        -1.759086        -0.022871
 C        -1.957229        -0.922903         0.561084
 C        -1.768640         0.472063        -0.097808
 C        -1.033737        -0.381769        -1.196517
 C        -0.492546        -1.147173         0.078904
 C         0.178467        -2.522404         0.155162
 C         0.203794         0.038022         0.695528
 O         1.365717         0.066056         0.976004
 O        -0.638388         1.077796         0.694119
 H        -2.878587        -2.756578         0.472517
 H        -4.081518        -1.446380         0.264771
 H        -2.994001        -2.019531        -1.115562
 H        -2.078413        -0.873248         1.700765
 H        -2.487983         1.278702        -0.239127
 H        -1.532197        -1.091917        -1.862740
 H        -0.318308         0.298787        -1.603530
 H         1.249368        -2.551484        -0.165458
 H         0.223064        -2.899902         1.222488
 H        -0.440406        -3.218980        -0.427668
