19
Iteration:  2371
 C        -3.100427        -1.683214         0.331897
 C        -1.994767        -0.656123         0.375708
 C        -1.498270         0.378109        -0.814057
 C        -0.535481        -0.684534        -1.281001
 C        -0.539032        -1.195357         0.146602
 C        -0.081159        -2.603729         0.387571
 C         0.166421         0.068102         0.753356
 O         0.992679         0.129041         1.665856
 O        -0.528939         1.124995         0.202271
 H        -3.124745        -2.314724        -0.538379
 H        -3.023602        -2.268223         1.229819
 H        -4.067162        -1.134239         0.363811
 H        -2.264489        -0.035246         1.230391
 H        -2.066618         1.267222        -1.292356
 H        -0.885663        -1.368851        -2.023128
 H         0.479102        -0.410204        -1.796964
 H        -0.879120        -3.290161         0.072502
 H         0.883505        -2.735561        -0.295463
 H         0.199588        -2.910427         1.411160
