19
Iteration:   116
 C        -2.918100        -1.415740         1.444276
 C        -1.652396        -0.691259         1.125029
 C        -1.775824         0.480906         0.096904
 C        -1.626394        -0.605898        -0.946685
 C        -0.636232        -1.256838         0.062556
 C        -0.053364        -2.633862        -0.176485
 C         0.410125        -0.052926         0.104925
 O         1.603276        -0.062196         0.062119
 O        -0.504487         1.121964         0.125684
 H        -2.944051        -1.785551         2.493767
 H        -3.879534        -0.788063         1.444670
 H        -3.138870        -2.352431         0.892031
 H        -1.199784        -0.335451         2.083768
 H        -2.561834         1.197575         0.260144
 H        -2.522938        -1.285831        -1.169164
 H        -1.069535        -0.278518        -1.898198
 H        -0.524795        -3.248823        -1.002678
 H         1.025299        -2.490162        -0.418512
 H        -0.036046        -3.146169         0.774574
