19
Iteration:  3291charge 0 multiplicity 1
 C        -3.141455        -1.783803         0.283938
 C        -1.970019        -0.754326         0.433124
 C        -1.606351         0.475619        -0.424032
 C        -0.746890        -0.477679        -1.304189
 C        -0.458382        -1.211826         0.056503
 C         0.050416        -2.675388         0.108640
 C         0.223964         0.069489         0.779973
 O         1.210319         0.123119         1.504704
 O        -0.648679         1.143027         0.354178
 H        -3.760991        -1.751116         1.167509
 H        -3.816925        -1.637478        -0.631267
 H        -2.858927        -2.805410         0.415398
 H        -1.965442        -0.512947         1.528343
 H        -2.347024         1.065961        -0.928131
 H        -1.227812        -1.038160        -2.059805
 H         0.082078         0.032536        -1.887847
 H         0.369963        -3.103418        -0.805155
 H         0.770347        -2.672824         0.804296
 H        -0.761959        -3.194229         0.501076
