19
Iteration:  1343
 C        -3.296902        -1.559033         0.497649
 C        -2.027188        -0.681428         0.713276
 C        -1.666759         0.352074        -0.337843
 C        -0.986892        -0.627102        -1.215979
 C        -0.495455        -1.180663         0.174283
 C         0.119830        -2.548752         0.232781
 C         0.316963        -0.011372         0.592135
 O         1.468747         0.033111         0.919448
 O        -0.595254         1.098771         0.301650
 H        -4.139201        -0.885369         0.740163
 H        -3.403374        -2.026651        -0.576860
 H        -3.293488        -2.404520         1.217937
 H        -1.998380        -0.296730         1.744719
 H        -2.281640         1.179047        -0.678005
 H        -1.661485        -1.308632        -1.869297
 H        -0.143193        -0.293139        -1.768507
 H         0.949773        -2.529400         1.021967
 H        -0.574447        -3.317293         0.473247
 H         0.698258        -2.814303        -0.684699
