19
Iteration:  1294charge 0 multiplicity 1
 C        -3.119179        -1.689131         0.527588
 C        -1.942697        -0.758335         0.715119
 C        -1.757584         0.443974        -0.302440
 C        -1.119700        -0.554672        -1.321505
 C        -0.578110        -1.164193         0.064277
 C        -0.034349        -2.561621         0.379190
 C         0.348306         0.014884         0.464446
 O         1.467980         0.035065         0.963197
 O        -0.412482         1.139647         0.321169
 H        -3.845106        -1.273153        -0.251054
 H        -2.792096        -2.662918         0.172839
 H        -3.644075        -1.902073         1.479950
 H        -1.681114        -0.551066         1.802688
 H        -2.513436         1.250478        -0.462295
 H        -1.937631        -1.137624        -1.672132
 H        -0.605852        -0.112361        -2.223922
 H        -0.729009        -3.105156         0.988220
 H         0.100014        -3.137015        -0.613530
 H         0.901006        -2.593198         0.940292
