19
Iteration:  2142charge 0 multiplicity 1
 C        -3.298528        -1.475854         0.217075
 C        -2.059145        -0.688039         0.358260
 C        -1.467854         0.312602        -0.705239
 C        -0.444197        -0.720276        -1.212435
 C        -0.544889        -1.285363         0.173711
 C         0.143486        -2.594689         0.399030
 C         0.079958         0.023844         0.809790
 O         0.996552         0.156866         1.539498
 O        -0.548339         1.107271         0.227802
 H        -3.339856        -2.034236        -0.769413
 H        -3.276897        -2.151000         1.073390
 H        -4.251252        -0.857761         0.260997
 H        -2.288179        -0.164114         1.308202
 H        -2.177766         0.980154        -1.302664
 H        -0.889922        -1.406769        -2.011398
 H         0.560120        -0.434408        -1.523094
 H        -0.436312        -3.509641         0.156247
 H         1.033104        -2.543458        -0.267270
 H         0.664953        -2.631472         1.367231
