19
Iteration:   578
 C        -3.168980        -1.481602         1.106471
 C        -1.843085        -0.662252         1.072863
 C        -1.834502         0.406370        -0.079110
 C        -1.408344        -0.626671        -1.108236
 C        -0.559990        -1.272336         0.110017
 C         0.079614        -2.723620         0.095105
 C         0.375222         0.003496         0.238409
 O         1.529209         0.089930         0.547640
 O        -0.336108         1.144248        -0.043469
 H        -3.081010        -2.601891         1.186608
 H        -3.951429        -1.142394         1.720727
 H        -3.614902        -1.284793         0.125808
 H        -1.398094        -0.378088         2.033871
 H        -2.640936         1.145017        -0.108847
 H        -2.329133        -1.145903        -1.494296
 H        -0.798337        -0.342404        -1.921945
 H        -0.385448        -3.447915        -0.685540
 H         1.172879        -2.729777        -0.188416
 H        -0.037230        -3.196970         1.047513
