19
Iteration:  4818
 C        -3.093853        -1.854458         0.151403
 C        -2.041667        -0.789256         0.618935
 C        -1.714181         0.441241        -0.162995
 C        -1.048100        -0.347279        -1.370024
 C        -0.429399        -1.165626        -0.016732
 C         0.273334        -2.461126         0.008113
 C         0.269090        -0.017005         0.650225
 O         1.226996        -0.005246         1.374770
 O        -0.576722         1.079336         0.543860
 H        -3.018676        -2.805545         0.707128
 H        -3.977112        -1.273494         0.261610
 H        -2.868398        -2.065454        -0.898847
 H        -2.020950        -0.633292         1.699701
 H        -2.407424         1.282151        -0.378339
 H        -1.829378        -0.923993        -1.895441
 H        -0.397935         0.287451        -2.040990
 H        -0.113538        -3.268119        -0.583179
 H         1.353288        -2.381235        -0.114494
 H        -0.022202        -2.746039         1.054616
