19
Iteration:   167
 C        -2.830410        -1.533660         1.403427
 C        -1.741995        -0.651940         1.019984
 C        -1.843191         0.569200         0.043499
 C        -1.569657        -0.548595        -1.086420
 C        -0.634294        -1.177987        -0.052200
 C        -0.086979        -2.615531         0.055023
 C         0.374497        -0.074186         0.042005
 O         1.584105        -0.085389         0.066302
 O        -0.422058         1.069686         0.306345
 H        -2.434240        -2.429533         1.939803
 H        -3.375645        -1.106366         2.188715
 H        -3.607424        -1.966153         0.775867
 H        -1.302894        -0.369332         1.963893
 H        -2.594275         1.410160         0.075454
 H        -2.409731        -1.274072        -1.207171
 H        -1.290979        -0.374211        -2.117275
 H        -0.721044        -3.147633         0.688820
 H        -0.179487        -3.162308        -0.876490
 H         1.010921        -2.599028         0.493153
