19
Iteration:  1371
 C        -3.197993        -1.539941         0.383931
 C        -1.959725        -0.714412         0.744533
 C        -1.659974         0.377394        -0.280174
 C        -1.146917        -0.695055        -1.248766
 C        -0.522650        -1.228200         0.175077
 C         0.070903        -2.651115         0.235198
 C         0.300904         0.021745         0.566572
 O         1.384383         0.184412         1.064503
 O        -0.438385         1.102981         0.214933
 H        -3.876697        -1.306802         1.220487
 H        -3.592476        -1.393561        -0.587846
 H        -3.139504        -2.617727         0.546211
 H        -1.818831        -0.426026         1.822551
 H        -2.263079         1.255723        -0.499731
 H        -1.907965        -1.238719        -1.751710
 H        -0.260144        -0.356479        -1.830204
 H         1.148309        -2.603185         0.194684
 H        -0.140075        -3.247774         1.222612
 H        -0.205650        -3.165764        -0.689967
