19
Iteration:  4132
 C        -3.044653        -1.797295        -0.013144
 C        -1.987639        -0.846734         0.607445
 C        -1.722595         0.374516        -0.103571
 C        -1.005925        -0.323628        -1.197489
 C        -0.512610        -1.180927         0.097891
 C         0.179879        -2.547888         0.106773
 C         0.209616        -0.004515         0.706274
 O         1.362272         0.130240         1.035378
 O        -0.629676         1.083303         0.656928
 H        -2.926047        -2.755494         0.445819
 H        -3.955694        -1.512273         0.359376
 H        -3.103393        -1.838950        -1.088974
 H        -1.845630        -0.874191         1.646575
 H        -2.455180         1.101423        -0.535909
 H        -1.707361        -0.849729        -1.854467
 H        -0.349539         0.294877        -1.836994
 H         1.155249        -2.667559        -0.355533
 H         0.250724        -2.780125         1.203977
 H        -0.490692        -3.274748        -0.455333
