19
Iteration:  2728
 C        -3.104026        -1.795272        -0.122892
 C        -2.065737        -0.741827         0.392401
 C        -1.497364         0.403124        -0.499370
 C        -0.665324        -0.639486        -1.281885
 C        -0.558854        -1.185854         0.255567
 C        -0.014085        -2.386698         0.779770
 C         0.118639         0.073641         0.721368
 O         1.209712         0.052310         1.174690
 O        -0.587544         1.143837         0.406495
 H        -2.865970        -2.267609        -1.069131
 H        -3.313632        -2.588158         0.547099
 H        -4.041777        -1.317832        -0.259083
 H        -2.185204        -0.534967         1.507074
 H        -2.033310         1.228614        -0.980572
 H        -1.256247        -1.378194        -1.767959
 H         0.370045        -0.462097        -1.713633
 H        -0.685795        -3.209270         0.387971
 H         1.008616        -2.607443         0.275234
 H         0.170589        -2.388316         1.879486
