19
Iteration:  2521charge 0 multiplicity 1
 C        -3.068003        -1.663479        -0.101791
 C        -2.019968        -0.751545         0.470970
 C        -1.569867         0.313627        -0.574283
 C        -0.685685        -0.650388        -1.219500
 C        -0.562531        -1.193798         0.270272
 C        -0.212900        -2.612420         0.616959
 C         0.241359         0.085399         0.758422
 O         1.280757         0.319610         1.331646
 O        -0.545579         1.028783         0.329684
 H        -2.712822        -1.978332        -1.105216
 H        -3.148970        -2.661113         0.434751
 H        -4.043122        -1.066349        -0.142594
 H        -2.240574        -0.337217         1.510407
 H        -2.096510         0.930408        -1.400779
 H        -1.149387        -1.364272        -1.857314
 H         0.230342        -0.135983        -1.595353
 H        -1.011709        -3.271020         0.184814
 H         0.650875        -2.965500         0.082718
 H        -0.022134        -2.706573         1.707788
