19
Iteration:  1115charge 0 multiplicity 1
 C        -3.125729        -1.659263         0.719111
 C        -1.848680        -0.691160         0.730079
 C        -1.763922         0.422983        -0.170976
 C        -1.160423        -0.483243        -1.236041
 C        -0.501480        -1.182497         0.056292
 C        -0.103699        -2.658546         0.251859
 C         0.383029         0.003937         0.450004
 O         1.550454         0.034380         0.784302
 O        -0.550642         1.101825         0.248917
 H        -2.916351        -2.647960         0.425930
 H        -3.556043        -1.606221         1.728813
 H        -3.789606        -1.232904         0.003335
 H        -1.685909        -0.317024         1.768013
 H        -2.623573         1.077300        -0.376115
 H        -1.811678        -1.169451        -1.834466
 H        -0.426437         0.050682        -1.843874
 H        -0.526999        -2.884491         1.260345
 H        -0.535968        -3.264309        -0.495038
 H         1.027210        -2.872356         0.249766
