19
Iteration:  1667charge 0 multiplicity 1
 C        -3.279097        -1.487403         0.376287
 C        -2.003783        -0.674928         0.560254
 C        -1.578388         0.356881        -0.589867
 C        -0.908543        -0.743314        -1.266905
 C        -0.479011        -1.151345         0.114752
 C         0.205260        -2.454573         0.309849
 C         0.247557         0.010295         0.645496
 O         1.179704        -0.025699         1.431507
 O        -0.515469         1.047568         0.228184
 H        -4.102273        -0.962691        -0.192055
 H        -3.146368        -2.462841        -0.228680
 H        -3.538692        -1.882803         1.361916
 H        -2.075568        -0.224226         1.578009
 H        -2.020244         1.234737        -1.046555
 H        -1.581566        -1.543952        -1.757802
 H        -0.241016        -0.310362        -2.003341
 H         0.120709        -3.048450        -0.553897
 H         1.309399        -2.198022         0.329350
 H        -0.114507        -2.885353         1.206507
