19
Iteration:  3353
 C        -3.133083        -1.761119         0.248481
 C        -1.931234        -0.773877         0.622027
 C        -1.649575         0.454860        -0.363180
 C        -1.013497        -0.518650        -1.362917
 C        -0.469652        -1.152809         0.057332
 C         0.235864        -2.506468         0.151803
 C         0.229831         0.017775         0.629621
 O         1.012455        -0.022940         1.527857
 O        -0.414142         1.197854         0.271241
 H        -3.951384        -1.178430        -0.084315
 H        -2.911852        -2.399601        -0.630803
 H        -3.335513        -2.484644         1.056549
 H        -1.866773        -0.662744         1.681158
 H        -2.441738         1.250179        -0.451138
 H        -1.614006        -1.235352        -1.912151
 H        -0.205846        -0.064474        -1.970201
 H         1.330490        -2.496819        -0.095958
 H         0.155423        -2.955402         1.260555
 H        -0.273050        -3.343276        -0.386708
