19
Iteration:  3448charge 0 multiplicity 1
 C        -3.129481        -1.727675         0.021548
 C        -2.028637        -0.830049         0.601175
 C        -1.638684         0.422325        -0.278160
 C        -0.775690        -0.374830        -1.157552
 C        -0.491525        -1.239603         0.192399
 C        -0.028998        -2.671460         0.234983
 C         0.307947         0.021042         0.685150
 O         1.422437         0.233036         1.047518
 O        -0.726738         1.080309         0.558575
 H        -2.676058        -2.420545        -0.735276
 H        -3.429214        -2.465546         0.767002
 H        -4.123050        -1.303979        -0.358550
 H        -2.238983        -0.483851         1.641692
 H        -2.402821         1.073236        -0.740717
 H        -1.288201        -1.119030        -1.867467
 H        -0.074985         0.047275        -1.862405
 H         1.043063        -2.671280         0.305951
 H        -0.431594        -3.114346         1.084663
 H        -0.398069        -3.403735        -0.474213
