19
Iteration:  4438charge 0 multiplicity 1
 C        -3.005962        -1.845561         0.002342
 C        -1.982848        -0.884812         0.529799
 C        -1.720984         0.549978        -0.194299
 C        -0.997024        -0.292805        -1.184925
 C        -0.507491        -1.127270         0.077950
 C         0.200123        -2.440120         0.097675
 C         0.242707        -0.033555         0.748925
 O         1.327076        -0.004997         1.149139
 O        -0.684343         1.025476         0.632828
 H        -3.399201        -2.697530         0.593059
 H        -3.932940        -1.342004        -0.319411
 H        -2.503134        -2.332132        -0.877306
 H        -2.084749        -0.835377         1.642247
 H        -2.532862         1.236837        -0.338399
 H        -1.707448        -0.844451        -1.749687
 H        -0.222299         0.103755        -1.817588
 H        -0.466607        -3.218717         0.265779
 H         0.735114        -2.681232        -0.781751
 H         0.773036        -2.488077         0.998284
