19
Iteration:  1004
 C        -3.000283        -1.618727         0.873849
 C        -1.840177        -0.644840         0.828377
 C        -1.764052         0.429308        -0.203493
 C        -1.271804        -0.526464        -1.278896
 C        -0.556464        -1.207858        -0.068158
 C        -0.054463        -2.657899         0.102164
 C         0.397637        -0.015476         0.347619
 O         1.483484         0.105524         0.895890
 O        -0.478648         1.020649         0.279287
 H        -3.314456        -1.830957         1.850494
 H        -3.902870        -1.038218         0.588846
 H        -3.049828        -2.469517         0.255277
 H        -1.719952        -0.266198         1.852332
 H        -2.552762         1.228338        -0.398018
 H        -2.122291        -1.104874        -1.624706
 H        -0.705349        -0.140395        -2.178926
 H         0.488362        -3.144332        -0.703589
 H         0.468597        -2.681356         1.049396
 H        -0.887517        -3.329505         0.311967
