19
Iteration:  1427
 C        -3.059886        -1.729427         0.555555
 C        -2.021452        -0.639453         0.639241
 C        -1.686417         0.515341        -0.474683
 C        -1.004737        -0.558401        -1.331909
 C        -0.568082        -1.159086         0.021753
 C         0.053621        -2.574039         0.364004
 C         0.284308        -0.029983         0.572703
 O         1.309595        -0.033503         1.204129
 O        -0.475950         1.141995         0.219676
 H        -3.106070        -2.310191         1.456160
 H        -4.089459        -1.361294         0.695588
 H        -2.918693        -2.404450        -0.266324
 H        -1.779011        -0.239087         1.659492
 H        -2.241710         1.332904        -0.850569
 H        -1.854133        -1.092126        -1.852280
 H        -0.248409        -0.471001        -2.080334
 H        -0.040841        -3.246589        -0.488386
 H         1.177704        -2.495902         0.633033
 H        -0.516285        -3.005880         1.186328
