19
Iteration:  1659
 C        -3.290939        -1.539246         0.352106
 C        -2.041742        -0.633728         0.518553
 C        -1.585501         0.412804        -0.532417
 C        -0.909309        -0.754847        -1.258469
 C        -0.475892        -1.198034         0.157101
 C         0.229167        -2.478977         0.254067
 C         0.252925         0.029037         0.706946
 O         1.225315        -0.014078         1.426497
 O        -0.520989         1.092711         0.186340
 H        -3.984348        -0.999009        -0.170049
 H        -2.966376        -2.464650        -0.130989
 H        -3.829833        -1.655758         1.287529
 H        -1.948968        -0.162139         1.516635
 H        -2.376258         1.110569        -1.008772
 H        -1.601982        -1.538703        -1.590614
 H        -0.206822        -0.535050        -2.112031
 H         0.092174        -3.204891        -0.600199
 H         1.254086        -2.378047         0.590577
 H        -0.156867        -3.135669         1.082870
