19
Iteration:  1812charge 0 multiplicity 1
 C        -3.268378        -1.544126         0.056510
 C        -2.014718        -0.723760         0.427610
 C        -1.550487         0.418278        -0.490715
 C        -0.787369        -0.661482        -1.335733
 C        -0.539255        -1.294327         0.098833
 C         0.156494        -2.605356         0.723762
 C         0.267481         0.008309         0.615315
 O         1.285230         0.056448         1.267903
 O        -0.663701         1.152383         0.384456
 H        -2.978160        -2.607785         0.004999
 H        -4.052934        -1.463128         0.887673
 H        -3.614914        -1.239286        -1.010171
 H        -2.144137        -0.183640         1.380235
 H        -2.214822         1.235192        -0.966681
 H        -1.514270        -1.096534        -1.960059
 H         0.118221        -0.309216        -1.955292
 H         0.279849        -2.258668         1.798614
 H        -0.483801        -3.392773         0.868784
 H         1.180430        -2.860578         0.408581
