19
Iteration:  1688charge 0 multiplicity 1
 C        -3.207531        -1.517277         0.419582
 C        -1.953897        -0.688902         0.508138
 C        -1.579126         0.441570        -0.502400
 C        -0.827372        -0.641566        -1.392348
 C        -0.565127        -1.286581         0.049998
 C         0.187035        -2.537661         0.422507
 C         0.182042        -0.040610         0.653767
 O         1.120171         0.022699         1.419112
 O        -0.498725         1.096061         0.185601
 H        -4.122030        -0.727539         0.492773
 H        -3.256414        -1.982047        -0.642652
 H        -3.262627        -2.329821         1.187311
 H        -1.835104        -0.316600         1.548501
 H        -2.430620         1.076726        -0.636300
 H        -1.442000        -1.292503        -2.138363
 H        -0.039144        -0.236557        -2.029135
 H        -0.115654        -3.482859         0.057567
 H         1.288071        -2.463393         0.116114
 H         0.122917        -2.558310         1.498562
