19
Iteration:  3033
 C        -3.097494        -1.661465         0.087601
 C        -1.968421        -0.703600         0.529069
 C        -1.670854         0.330908        -0.483952
 C        -0.802468        -0.635777        -1.300957
 C        -0.522970        -1.238445         0.180067
 C         0.038684        -2.595601         0.256856
 C         0.173457         0.060663         0.811212
 O         1.218426         0.235693         1.445890
 O        -0.524899         1.089072         0.323484
 H        -2.826920        -2.269015        -0.866951
 H        -3.203419        -2.431159         0.890353
 H        -4.069220        -1.109811        -0.064281
 H        -2.217025        -0.327718         1.496029
 H        -2.196275         1.093674        -0.973062
 H        -1.414021        -1.373793        -1.827322
 H         0.071512        -0.289336        -1.899243
 H        -0.313408        -3.231211        -0.548005
 H         1.122572        -2.647475         0.269463
 H        -0.164703        -2.944046         1.309213
