19
Iteration:  1858charge 0 multiplicity 1
 C        -3.133949        -1.631950         0.012098
 C        -2.065764        -0.637666         0.597460
 C        -1.629664         0.339513        -0.532325
 C        -0.805857        -0.773964        -1.166377
 C        -0.549050        -1.184812         0.234112
 C        -0.006525        -2.614262         0.435199
 C         0.277408         0.065847         0.748497
 O         1.198379         0.175992         1.518351
 O        -0.425655         1.155024         0.054966
 H        -2.805632        -2.332729        -0.735079
 H        -3.511730        -2.149842         0.871017
 H        -3.963639        -0.978038        -0.443959
 H        -2.259973        -0.475667         1.656621
 H        -2.220360         1.054299        -1.047470
 H        -1.475903        -1.400343        -1.780195
 H         0.027386        -0.386058        -1.701333
 H         1.065345        -2.732754         0.687532
 H        -0.556531        -3.310445         1.040618
 H        -0.012303        -2.989288        -0.613815
