19
Iteration:  2287
 C        -3.257094        -1.542034        -0.112828
 C        -2.002391        -0.760180         0.449739
 C        -1.552101         0.265628        -0.582171
 C        -0.638144        -0.668909        -1.239918
 C        -0.517172        -1.206175         0.276620
 C         0.010533        -2.530273         0.670491
 C         0.237241         0.027957         0.734369
 O         1.227547         0.148930         1.379942
 O        -0.614713         1.091599         0.274962
 H        -3.161962        -1.819138        -1.177168
 H        -3.447967        -2.501263         0.478486
 H        -4.160094        -0.895590         0.022681
 H        -2.317702        -0.212565         1.361692
 H        -2.287721         0.923256        -1.155367
 H        -1.062864        -1.415860        -1.841559
 H         0.230961        -0.105750        -1.630844
 H        -0.619022        -3.327999         0.393847
 H         0.967364        -2.675879         0.083773
 H         0.368701        -2.511490         1.680557
