19
Iteration:   173charge 0 multiplicity 1
 C        -2.848776        -1.562498         1.375933
 C        -1.696616        -0.645770         1.053052
 C        -1.789202         0.522423         0.025538
 C        -1.630372        -0.550809        -1.076845
 C        -0.595196        -1.176298        -0.053340
 C        -0.096537        -2.629872         0.052287
 C         0.352264        -0.037677         0.034209
 O         1.537569        -0.070173         0.095496
 O        -0.391344         1.087171         0.283669
 H        -2.343685        -2.472318         1.719067
 H        -3.418294        -1.142648         2.285923
 H        -3.582887        -1.789163         0.564235
 H        -1.265916        -0.305990         2.037776
 H        -2.474153         1.354252         0.156584
 H        -2.533354        -1.149560        -1.111616
 H        -1.299965        -0.450489        -2.140389
 H        -0.713753        -3.069071         0.944861
 H        -0.239563        -3.275457        -0.838827
 H         0.889122        -2.667490         0.376303
