19
Iteration:   721
 C        -3.182230        -1.490042         1.142803
 C        -1.838992        -0.745069         0.910412
 C        -1.705964         0.432776        -0.157580
 C        -1.227647        -0.644249        -1.238173
 C        -0.615657        -1.202361         0.023056
 C        -0.038029        -2.577351         0.107555
 C         0.389394        -0.029373         0.249772
 O         1.548457         0.042426         0.589890
 O        -0.490575         1.054101         0.213240
 H        -3.223563        -1.844915         2.179523
 H        -3.924858        -0.676626         1.124607
 H        -3.561254        -2.213936         0.426464
 H        -1.429066        -0.400656         1.860202
 H        -2.534210         1.086918        -0.357591
 H        -2.023065        -1.211453        -1.709051
 H        -0.653784        -0.240066        -2.040962
 H         0.955148        -2.330023         0.524385
 H        -0.512775        -3.365252         0.629510
 H         0.310712        -2.947011        -0.928380
