19
Iteration:   990
 C        -3.059104        -1.622025         0.965762
 C        -1.799869        -0.720250         0.785695
 C        -1.705087         0.482571        -0.264168
 C        -1.233798        -0.614777        -1.335502
 C        -0.526918        -1.153909        -0.045696
 C        -0.182531        -2.562348         0.080101
 C         0.352899        -0.045451         0.436315
 O         1.478561         0.065096         0.847099
 O        -0.510207         1.088703         0.314088
 H        -3.054609        -1.980038         2.030246
 H        -3.963273        -1.308391         0.488655
 H        -2.667787        -2.552952         0.483751
 H        -1.381411        -0.443660         1.773903
 H        -2.365681         1.332703        -0.372346
 H        -1.944297        -1.439192        -1.642947
 H        -0.595806        -0.308866        -2.183932
 H         0.751668        -2.617581        -0.506400
 H         0.262375        -2.786013         1.166907
 H        -0.987933        -3.180263        -0.263480
