19
Iteration:  1728charge 0 multiplicity 1
 C        -3.134080        -1.644807         0.232306
 C        -1.928342        -0.710205         0.562922
 C        -1.592940         0.379828        -0.448410
 C        -0.877962        -0.735628        -1.344139
 C        -0.524986        -1.142331         0.088745
 C        -0.145196        -2.528611         0.414616
 C         0.305514         0.022652         0.669375
 O         1.252829         0.165269         1.414045
 O        -0.501925         1.089237         0.210810
 H        -3.828721        -1.819467         0.997186
 H        -3.516725        -1.393568        -0.694809
 H        -2.771431        -2.658529         0.063737
 H        -2.008491        -0.250027         1.542668
 H        -2.138189         1.252485        -0.825336
 H        -1.453371        -1.542381        -1.764512
 H        -0.046947        -0.395445        -1.968058
 H        -0.959020        -3.191543         0.803822
 H         0.487355        -2.901081        -0.401700
 H         0.684943        -2.518592         1.188958
