19
Iteration:  2854charge 0 multiplicity 1
 C        -3.075153        -1.744367         0.299400
 C        -2.033612        -0.611231         0.448804
 C        -1.533732         0.449995        -0.668562
 C        -0.706368        -0.672514        -1.342724
 C        -0.424484        -1.171545         0.101537
 C         0.114786        -2.480374         0.484294
 C         0.175792         0.054920         0.730781
 O         0.908175        -0.062650         1.678565
 O        -0.496948         1.173327         0.057625
 H        -3.049416        -2.319800         1.219307
 H        -4.184584        -1.444615         0.187927
 H        -2.858254        -2.429579        -0.553775
 H        -2.162875        -0.163012         1.438266
 H        -2.233279         1.123874        -1.328914
 H        -1.460863        -1.227218        -1.943123
 H         0.042176        -0.402011        -2.031732
 H        -0.502820        -3.337779         0.060127
 H         1.126375        -2.482813         0.001428
 H         0.176956        -2.644558         1.577592
