19
Iteration:  4155
 C        -3.052815        -1.886235        -0.032455
 C        -2.007630        -0.888731         0.650766
 C        -1.811467         0.471922        -0.053263
 C        -0.900615        -0.303903        -1.252087
 C        -0.577662        -1.133479         0.075379
 C         0.154549        -2.417109         0.222302
 C         0.288236        -0.015346         0.641880
 O         1.469142        -0.013290         0.925609
 O        -0.726199         1.082538         0.704209
 H        -3.327689        -2.787047         0.471712
 H        -3.919609        -1.311539        -0.057706
 H        -2.782891        -2.001896        -1.050757
 H        -2.012411        -0.854062         1.726338
 H        -2.701994         1.138225        -0.172506
 H        -1.667169        -0.743829        -1.893605
 H        -0.064292        -0.011757        -1.914984
 H         1.220173        -2.201988         0.102487
 H         0.001914        -2.715652         1.260089
 H        -0.058088        -3.206974        -0.526682
