19
Iteration:   250charge 0 multiplicity 1
 C        -2.932708        -1.393966         1.438671
 C        -1.711894        -0.586048         0.982873
 C        -1.757321         0.449507        -0.045480
 C        -1.556842        -0.707934        -1.081338
 C        -0.666539        -1.281090        -0.012669
 C        -0.013153        -2.608934        -0.119957
 C         0.348668        -0.035658         0.158468
 O         1.551060        -0.009182         0.255544
 O        -0.443293         1.029134         0.249778
 H        -2.946997        -2.421537         1.058297
 H        -2.695232        -1.418245         2.503259
 H        -3.863554        -0.837452         1.261297
 H        -1.286667        -0.054666         1.867212
 H        -2.488358         1.297472        -0.033047
 H        -2.465067        -1.303514        -1.100789
 H        -1.225595        -0.414685        -2.072135
 H         1.069206        -2.568490         0.220769
 H        -0.524798        -3.385056         0.455287
 H        -0.119473        -2.912195        -1.093179
