19
Iteration:  3854charge 0 multiplicity 1
 C        -3.041822        -1.759366         0.194620
 C        -1.857972        -0.856869         0.625098
 C        -1.689783         0.435342        -0.206371
 C        -0.983806        -0.444548        -1.374746
 C        -0.543947        -1.183079        -0.064504
 C         0.185401        -2.532384        -0.118892
 C         0.163932         0.009719         0.832487
 O         1.243985         0.081529         1.363596
 O        -0.617415         1.139230         0.566229
 H        -2.766685        -2.735328        -0.140602
 H        -3.421609        -1.883258         1.213032
 H        -3.775103        -1.228552        -0.378919
 H        -1.723478        -0.676375         1.732806
 H        -2.563397         1.097250        -0.368662
 H        -1.786538        -0.990738        -1.842872
 H        -0.201745        -0.021916        -2.103322
 H         1.303414        -2.574662        -0.517625
 H         0.159761        -3.076209         0.853947
 H        -0.350637        -3.125356        -0.918166
