19
Iteration:  2134
 C        -3.283950        -1.467867         0.191991
 C        -2.079770        -0.680511         0.361118
 C        -1.431581         0.309682        -0.744658
 C        -0.525647        -0.684744        -1.260327
 C        -0.481896        -1.257087         0.203109
 C         0.134818        -2.657400         0.410720
 C         0.091987         0.051556         0.824323
 O         1.048963         0.202909         1.579961
 O        -0.615632         1.016676         0.214576
 H        -3.484360        -2.088806        -0.709251
 H        -3.396538        -2.266928         1.043878
 H        -4.206869        -0.804841         0.345731
 H        -2.041322        -0.266290         1.373443
 H        -1.891651         1.216100        -1.330649
 H        -0.799609        -1.195852        -2.113244
 H         0.492186        -0.293354        -1.445312
 H        -0.505662        -3.463300         0.372531
 H         0.916839        -2.677245        -0.396703
 H         0.570924        -2.698367         1.361911
