19
Iteration:  1802
 C        -3.269716        -1.560295         0.068672
 C        -2.013833        -0.722674         0.442444
 C        -1.596702         0.407092        -0.532907
 C        -0.710408        -0.633256        -1.360093
 C        -0.479193        -1.206172         0.159513
 C         0.085113        -2.517281         0.747299
 C         0.224880        -0.015572         0.650580
 O         1.288657         0.058840         1.196962
 O        -0.622244         1.080380         0.404375
 H        -3.049307        -2.598279         0.245297
 H        -4.150324        -1.285854         0.728469
 H        -3.691608        -1.453763        -1.001829
 H        -2.064871        -0.569647         1.537150
 H        -2.289011         1.233303        -0.874423
 H        -1.386527        -1.246235        -1.896436
 H         0.075879        -0.311389        -2.096328
 H         0.003992        -2.603259         1.865992
 H        -0.460842        -3.343311         0.311119
 H         1.157175        -2.731768         0.495161
