19
Iteration:    50
 C        -2.751650        -1.599229         1.613677
 C        -1.596978        -0.670143         1.154318
 C        -1.852970         0.509377         0.088006
 C        -1.633083        -0.484453        -1.119411
 C        -0.645027        -1.144733         0.005797
 C        -0.132794        -2.575564        -0.080802
 C         0.319855        -0.093187         0.077107
 O         1.547487        -0.107524         0.072828
 O        -0.436808         1.082851         0.089165
 H        -2.868666        -1.555586         2.740936
 H        -3.744680        -1.216255         1.186439
 H        -2.608410        -2.682660         1.329421
 H        -1.127665        -0.219659         2.057074
 H        -2.576139         1.337201         0.202131
 H        -2.325205        -1.188889        -1.710565
 H        -1.078682        -0.109916        -2.046254
 H         0.920969        -2.818244        -0.405963
 H        -0.265240        -3.061200         0.915463
 H        -0.884949        -3.060192        -0.734314
