19
Iteration:  1804
 C        -3.282829        -1.554574         0.064457
 C        -2.009542        -0.721110         0.439699
 C        -1.595830         0.411801        -0.534251
 C        -0.709920        -0.638574        -1.356867
 C        -0.493182        -1.224278         0.149950
 C         0.109491        -2.527792         0.743322
 C         0.242146        -0.017665         0.636664
 O         1.285546         0.057095         1.210782
 O        -0.639895         1.101723         0.404446
 H        -3.015827        -2.565624         0.208061
 H        -4.084013        -1.350606         0.733230
 H        -3.656126        -1.418992        -0.964181
 H        -2.082224        -0.505027         1.522181
 H        -2.207126         1.227785        -0.827201
 H        -1.455243        -1.194085        -1.948058
 H         0.014594        -0.333342        -2.072245
 H         0.064496        -2.584696         1.862553
 H        -0.546802        -3.431803         0.447033
 H         1.201789        -2.778509         0.519967
