19
Iteration:  4379charge 0 multiplicity 1
 C        -3.081832        -1.805175         0.022403
 C        -2.011016        -0.910319         0.556212
 C        -1.753980         0.392525        -0.173501
 C        -0.938231        -0.355623        -1.281108
 C        -0.531429        -1.170969         0.093349
 C         0.143180        -2.578685         0.056461
 C         0.247778         0.037547         0.790453
 O         1.388913         0.167658         1.146424
 O        -0.615722         1.080913         0.643841
 H        -2.945570        -2.776975         0.442301
 H        -4.050913        -1.358580         0.269383
 H        -3.117872        -1.834725        -1.050618
 H        -2.249177        -0.823348         1.655802
 H        -2.547354         1.181202        -0.115284
 H        -1.458187        -0.881690        -2.133834
 H        -0.108077         0.276425        -1.688326
 H        -0.356659        -3.142325        -0.757895
 H         1.241461        -2.570664        -0.027083
 H         0.016128        -3.016754         1.046339
