19
Iteration:   879charge 0 multiplicity 1
 C        -3.164982        -1.560309         0.856329
 C        -1.875751        -0.715321         0.888485
 C        -1.702172         0.448892        -0.110009
 C        -1.220811        -0.558186        -1.158131
 C        -0.678113        -1.233319         0.106665
 C         0.038362        -2.544462         0.186347
 C         0.335564        -0.092818         0.436008
 O         1.518896         0.098247         0.526448
 O        -0.441573         1.032713         0.188317
 H        -3.227325        -2.179316         1.776190
 H        -4.005458        -0.906543         0.740359
 H        -3.370501        -2.332642         0.085044
 H        -1.759499        -0.358617         1.918650
 H        -2.404117         1.233980        -0.232134
 H        -1.975956        -1.204861        -1.654450
 H        -0.409577        -0.312613        -1.828940
 H        -0.361435        -3.443151         0.669789
 H         0.114544        -2.716067        -0.916068
 H         1.075262        -2.471476         0.552837
