19
Iteration:   826
 C        -3.018247        -1.617696         0.930763
 C        -1.781126        -0.677806         0.913435
 C        -1.675309         0.490473        -0.133898
 C        -1.328137        -0.560962        -1.274927
 C        -0.626219        -1.200235         0.036784
 C        -0.109186        -2.584215         0.254129
 C         0.306603        -0.031356         0.340667
 O         1.462147         0.092846         0.627377
 O        -0.429209         1.038958         0.158039
 H        -2.561489        -2.647730         1.091279
 H        -3.778542        -1.488590         1.683542
 H        -3.535774        -1.769192        -0.037132
 H        -1.374644        -0.438542         1.916176
 H        -2.371310         1.283317        -0.136524
 H        -2.017662        -1.336760        -1.737395
 H        -0.580174        -0.145820        -1.957166
 H        -0.346154        -3.237857        -0.661072
 H         1.020401        -2.777085         0.368377
 H        -0.506526        -3.024973         1.112982
