19
Iteration:  1537charge 0 multiplicity 1
 C        -3.244239        -1.702939         0.232875
 C        -2.025378        -0.721870         0.608546
 C        -1.653943         0.452651        -0.357253
 C        -0.942274        -0.644078        -1.211877
 C        -0.525007        -1.114849         0.234637
 C         0.153562        -2.507250         0.389617
 C         0.278476         0.039486         0.604695
 O         1.359959        -0.076367         1.093019
 O        -0.552222         1.200616         0.279203
 H        -2.918441        -2.656232        -0.151029
 H        -3.907420        -1.748638         1.160078
 H        -3.799358        -1.206420        -0.555847
 H        -1.963868        -0.406757         1.693462
 H        -2.211949         1.261203        -0.823146
 H        -1.630064        -1.416774        -1.756351
 H        -0.146202        -0.271382        -1.817602
 H         0.807034        -2.678102         1.307728
 H        -0.752312        -3.295859         0.461520
 H         0.794512        -2.841166        -0.449256
