19
Iteration:    76
 C        -2.849910        -1.495933         1.404445
 C        -1.567950        -0.701457         1.163252
 C        -1.730556         0.493620         0.203165
 C        -1.712135        -0.566140        -0.930184
 C        -0.675373        -1.225642        -0.060132
 C        -0.125994        -2.668728        -0.095259
 C         0.398043        -0.050210        -0.004210
 O         1.574730         0.015645         0.171399
 O        -0.450203         1.092390         0.018312
 H        -2.818896        -1.593243         2.468782
 H        -3.788278        -0.978186         1.171277
 H        -2.863914        -2.493362         1.004267
 H        -1.077379        -0.519857         2.147883
 H        -2.530380         1.227258         0.238201
 H        -2.678986        -0.950545        -0.994977
 H        -1.472502        -0.421349        -1.947889
 H         0.495021        -2.944122        -1.039863
 H         0.560459        -2.798765         0.752262
 H        -0.946500        -3.344213        -0.019015
