19
Iteration:   976
 C        -2.986254        -1.720021         0.984725
 C        -1.864293        -0.685504         0.797178
 C        -1.689584         0.449238        -0.269314
 C        -1.161074        -0.587454        -1.276062
 C        -0.604086        -1.148399         0.042673
 C        -0.097971        -2.568561         0.035155
 C         0.306177         0.043499         0.479157
 O         1.460473        -0.018103         0.793061
 O        -0.463465         1.155774         0.256050
 H        -3.244582        -1.707441         2.085828
 H        -3.943390        -1.276310         0.601244
 H        -2.967553        -2.791257         0.615792
 H        -1.657592        -0.176045         1.784604
 H        -2.512453         1.080077        -0.549405
 H        -2.101173        -1.048444        -1.668275
 H        -0.498705        -0.313571        -2.070515
 H         0.925623        -2.774729        -0.351433
 H        -0.330593        -3.099354         0.977619
 H        -0.754244        -3.147396        -0.709786
