19
Iteration:   299charge 0 multiplicity 1
 C        -2.953275        -1.484655         1.402909
 C        -1.721580        -0.709180         1.043985
 C        -1.767843         0.471430        -0.000565
 C        -1.549261        -0.575636        -1.105021
 C        -0.590053        -1.239279         0.026220
 C        -0.019924        -2.546642        -0.002903
 C         0.314012        -0.059060         0.192766
 O         1.497039        -0.042276         0.291058
 O        -0.379636         1.069043         0.035818
 H        -3.632128        -1.679864         0.561409
 H        -2.686485        -2.470412         1.869401
 H        -3.392492        -0.778130         2.108805
 H        -1.265017        -0.461754         2.013391
 H        -2.531258         1.216087        -0.133370
 H        -2.429839        -1.212820        -1.271460
 H        -1.120996        -0.333724        -2.119807
 H         0.712862        -2.587392        -0.789855
 H         0.538397        -2.724617         0.931517
 H        -0.914756        -3.345360        -0.092502
