19
Iteration:  2430
 C        -3.100356        -1.583343        -0.032290
 C        -1.998427        -0.687042         0.522628
 C        -1.566514         0.339195        -0.518891
 C        -0.772044        -0.719494        -1.282806
 C        -0.415020        -1.219986         0.164466
 C         0.044134        -2.560372         0.559884
 C         0.194226         0.005432         0.739774
 O         1.041318         0.141533         1.571764
 O        -0.493376         1.152359         0.105687
 H        -3.041521        -2.082200        -0.990153
 H        -3.192480        -2.449287         0.643730
 H        -4.001091        -1.024531        -0.007825
 H        -2.152767        -0.208688         1.520535
 H        -2.185843         1.058971        -1.009860
 H        -1.494003        -1.480993        -1.655343
 H        -0.046764        -0.299686        -1.923317
 H        -0.135199        -3.206971        -0.348924
 H         1.125131        -2.648467         0.748529
 H        -0.588412        -2.908957         1.399627
