19
Iteration:  2607charge 0 multiplicity 1
 C        -3.314578        -1.586232         0.272986
 C        -1.951086        -0.834799         0.434293
 C        -1.494795         0.422296        -0.657048
 C        -0.693945        -0.667146        -1.430117
 C        -0.462205        -1.186714         0.088471
 C         0.244912        -2.524604         0.527988
 C         0.153166         0.050263         0.700226
 O         0.946194         0.052250         1.660000
 O        -0.494812         1.152539         0.175557
 H        -3.447871        -2.141783        -0.632723
 H        -3.744485        -2.120570         1.124862
 H        -3.986454        -0.753228         0.148459
 H        -2.131777        -0.316487         1.468009
 H        -2.088075         1.137424        -1.363809
 H        -1.409709        -1.370646        -1.873729
 H         0.147917        -0.660381        -2.180147
 H        -0.317528        -3.440958        -0.015259
 H         1.279049        -2.526785         0.128414
 H         0.381062        -2.818873         1.636734
