19
Iteration:    29charge 0 multiplicity 1
 C        -2.748763        -1.581486         1.678623
 C        -1.749250        -0.607184         1.063173
 C        -1.731404         0.489423        -0.034434
 C        -1.614498        -0.516687        -1.046890
 C        -0.703862        -1.201569        -0.050599
 C        -0.201894        -2.608828        -0.109639
 C         0.357021        -0.049279         0.046184
 O         1.576080        -0.088180         0.012023
 O        -0.423136         1.082280         0.283690
 H        -2.840437        -1.425218         2.786298
 H        -3.737188        -1.646323         1.120739
 H        -2.131624        -2.475849         1.477341
 H        -1.191423        -0.138000         1.926507
 H        -2.480057         1.280156        -0.084048
 H        -2.538331        -1.118866        -1.242982
 H        -1.444258        -0.353413        -2.141270
 H         0.932562        -2.378237         0.190088
 H        -0.465057        -3.285723         0.734696
 H        -0.142116        -3.121250        -1.064436
