19
Iteration:  4012
 C        -3.023740        -1.812382         0.359523
 C        -1.892450        -0.789833         0.606313
 C        -1.698457         0.460709        -0.180484
 C        -1.025685        -0.381521        -1.315750
 C        -0.511554        -1.141692        -0.060886
 C         0.269963        -2.457473        -0.080061
 C         0.211336         0.047551         0.626576
 O         1.088501        -0.114186         1.426560
 O        -0.533838         1.130504         0.416092
 H        -3.252328        -2.415508         1.257492
 H        -3.989016        -1.475217         0.048360
 H        -2.721185        -2.542597        -0.428861
 H        -1.664452        -0.637759         1.652146
 H        -2.513852         1.223085        -0.194614
 H        -1.828038        -1.002565        -1.852956
 H        -0.533264         0.179252        -2.165719
 H         1.197486        -2.280802        -0.547478
 H         0.440310        -2.817130         0.963742
 H        -0.281005        -3.257741        -0.623598
