19
Iteration:  2546
 C        -3.086373        -1.756026        -0.071969
 C        -2.097164        -0.716973         0.413537
 C        -1.594321         0.426512        -0.472750
 C        -0.712507        -0.712279        -1.220328
 C        -0.512566        -1.166775         0.234221
 C        -0.106974        -2.606496         0.562249
 C         0.234223         0.100605         0.808204
 O         1.219662         0.175140         1.461421
 O        -0.463702         1.184008         0.134823
 H        -2.640979        -2.550544        -0.745734
 H        -3.106604        -2.364201         0.844807
 H        -4.112068        -1.318441        -0.367530
 H        -2.461276        -0.391262         1.366705
 H        -2.321401         1.144391        -0.891565
 H        -1.413799        -1.413581        -1.601392
 H         0.189197        -0.429788        -1.809811
 H        -0.896643        -3.181366         0.273784
 H         0.650371        -3.015405        -0.153137
 H         0.216511        -2.697080         1.553534
