19
Iteration:  4587charge 0 multiplicity 1
 C        -3.029210        -1.810748         0.131084
 C        -1.920988        -0.839787         0.644774
 C        -1.743488         0.450581        -0.169832
 C        -0.972038        -0.444742        -1.330105
 C        -0.471296        -1.148877        -0.033819
 C         0.081985        -2.550834        -0.026706
 C         0.317928         0.011296         0.672790
 O         1.289908         0.100726         1.354332
 O        -0.666950         1.133275         0.571297
 H        -2.965753        -2.786387         0.559676
 H        -3.982140        -1.391026         0.268339
 H        -3.040126        -1.927013        -0.962365
 H        -1.970865        -0.796111         1.684163
 H        -2.553453         1.133461        -0.473669
 H        -1.629605        -1.047940        -2.004009
 H        -0.129250         0.124888        -1.764659
 H        -0.018764        -3.223783        -0.908452
 H         1.171181        -2.474341         0.287997
 H        -0.317997        -3.014128         0.903310
