19
Iteration:  2791charge 0 multiplicity 1
 C        -3.148728        -1.578535        -0.030118
 C        -1.933060        -0.810644         0.467925
 C        -1.593868         0.310051        -0.582877
 C        -0.709033        -0.796854        -1.242606
 C        -0.487886        -1.194980         0.188969
 C         0.000420        -2.661741         0.534597
 C         0.164459         0.151556         0.780282
 O         1.169172         0.299954         1.473945
 O        -0.556551         1.148566         0.237656
 H        -3.027942        -2.614109        -0.368450
 H        -3.924942        -1.516450         0.843704
 H        -3.594419        -1.014333        -0.869423
 H        -1.939579        -0.730100         1.549316
 H        -2.462600         0.978091        -0.965179
 H        -1.310254        -1.507780        -1.818429
 H         0.094148        -0.403857        -1.947286
 H        -0.454065        -3.508424        -0.026660
 H         0.982547        -2.621132         0.291632
 H         0.013946        -2.913807         1.581740
