19
Iteration:  4065
 C        -2.966981        -1.766005         0.394434
 C        -1.903875        -0.768240         0.641407
 C        -1.768238         0.455946        -0.313824
 C        -0.986707        -0.451964        -1.350223
 C        -0.496932        -1.164937        -0.115832
 C         0.238472        -2.488112        -0.178858
 C         0.229241        -0.030508         0.670058
 O         1.077187        -0.013946         1.528634
 O        -0.542688         1.128738         0.479733
 H        -2.690271        -2.681220         0.909366
 H        -3.743523        -1.491936         1.036029
 H        -3.420113        -2.008639        -0.560050
 H        -1.853014        -0.641295         1.729271
 H        -2.585447         1.170447        -0.555059
 H        -1.733528        -0.968661        -2.001738
 H        -0.266208         0.152500        -1.850734
 H         0.917371        -2.525951        -1.054737
 H         0.844485        -2.626292         0.783345
 H        -0.480529        -3.310563        -0.478257
