19
Iteration:  3865
 C        -3.057910        -1.771259         0.218985
 C        -1.942813        -0.865268         0.549159
 C        -1.683441         0.430512        -0.179872
 C        -1.010189        -0.387208        -1.262023
 C        -0.452833        -1.155214        -0.044385
 C         0.185224        -2.481812        -0.025798
 C         0.198102         0.024357         0.715059
 O         1.274407         0.004364         1.283461
 O        -0.628840         1.104634         0.574670
 H        -2.605216        -2.616198        -0.271195
 H        -3.781510        -2.161853         0.952158
 H        -3.703701        -1.444886        -0.586927
 H        -1.951127        -0.781234         1.675893
 H        -2.466858         1.177536        -0.386597
 H        -1.698373        -0.923640        -1.913953
 H        -0.314953         0.275496        -1.872762
 H         1.338393        -2.348054        -0.271986
 H         0.091586        -2.888470         1.014075
 H        -0.385126        -3.222813        -0.665277
