19
Iteration:  4134
 C        -3.029605        -1.782468        -0.023831
 C        -1.980447        -0.865313         0.586223
 C        -1.734417         0.396928        -0.097491
 C        -1.024535        -0.347216        -1.192595
 C        -0.507631        -1.170357         0.097354
 C         0.181963        -2.545178         0.123724
 C         0.202387         0.010205         0.703390
 O         1.360420         0.110667         1.014955
 O        -0.628019         1.082785         0.670677
 H        -2.914323        -2.746063         0.470054
 H        -4.020042        -1.499061         0.351837
 H        -3.074935        -1.901882        -1.088183
 H        -1.870596        -0.875721         1.675266
 H        -2.446579         1.153512        -0.473298
 H        -1.663044        -0.946178        -1.858058
 H        -0.297463         0.371969        -1.787026
 H         1.176071        -2.660273        -0.282761
 H         0.246671        -2.784995         1.158039
 H        -0.460659        -3.224102        -0.443132
