19
Iteration:  2061charge 0 multiplicity 1
 C        -2.961361        -1.744797        -0.063363
 C        -2.128885        -0.646468         0.445074
 C        -1.556700         0.484514        -0.584193
 C        -0.754774        -0.615612        -1.260710
 C        -0.669195        -1.191178         0.200679
 C         0.026065        -2.477474         0.651126
 C         0.173499         0.017720         0.768027
 O         1.133156        -0.007135         1.467091
 O        -0.425048         1.099188         0.193261
 H        -2.623120        -2.254992        -0.907777
 H        -3.048861        -2.532854         0.688529
 H        -3.999964        -1.591220        -0.137580
 H        -2.566538        -0.197511         1.370987
 H        -2.174013         1.278198        -1.005983
 H        -1.110980        -1.279193        -2.060018
 H         0.170618        -0.030248        -1.650013
 H        -0.850911        -3.250811         0.640430
 H         0.791924        -2.830669        -0.101287
 H         0.223119        -2.364275         1.764945
