19
Iteration:  4038charge 0 multiplicity 1
 C        -2.991498        -1.881353         0.423007
 C        -1.882226        -0.854896         0.692941
 C        -1.713864         0.593212        -0.292416
 C        -1.108173        -0.359667        -1.395110
 C        -0.486172        -1.087144        -0.123722
 C         0.323124        -2.393060        -0.083095
 C         0.209638        -0.044999         0.689355
 O         1.055218        -0.178103         1.572830
 O        -0.511330         1.131721         0.298955
 H        -3.099284        -2.652695         1.226932
 H        -4.038191        -1.382240         0.672626
 H        -3.150916        -2.336624        -0.575510
 H        -1.633105        -0.814623         1.809143
 H        -2.443470         1.398899        -0.434863
 H        -1.834183        -0.933900        -1.958636
 H        -0.534563         0.265261        -2.152740
 H         1.137821        -2.454907        -0.833162
 H         0.689926        -2.532698         0.899778
 H        -0.323563        -3.145081        -0.479921
