19
Iteration:   549charge 0 multiplicity 1
 C        -2.909630        -1.465280         1.051337
 C        -1.790347        -0.596152         0.919895
 C        -1.821154         0.392082        -0.136319
 C        -1.515256        -0.714408        -1.127312
 C        -0.553623        -1.172925         0.082327
 C        -0.047019        -2.559143         0.121882
 C         0.388203        -0.034244         0.234499
 O         1.550443        -0.021230         0.609346
 O        -0.460720         1.066951         0.045592
 H        -2.656955        -2.524554         1.093479
 H        -3.267923        -1.152416         2.083824
 H        -3.775820        -1.326877         0.397353
 H        -1.428994        -0.236092         1.932338
 H        -2.613455         1.109758        -0.122682
 H        -2.461532        -1.241489        -1.146963
 H        -0.967416        -0.483027        -2.051452
 H         0.266348        -2.879760        -0.815040
 H         0.867210        -2.541002         0.677545
 H        -0.709669        -3.319439         0.720145
