19
Iteration:  1077charge 0 multiplicity 1
 C        -3.210726        -1.510718         0.767458
 C        -1.976908        -0.690594         0.731861
 C        -1.688268         0.500053        -0.216923
 C        -1.133675        -0.584256        -1.201598
 C        -0.547166        -1.256397         0.054720
 C         0.118829        -2.617633         0.202410
 C         0.298858        -0.086075         0.478919
 O         1.480634         0.051654         0.660861
 O        -0.511844         1.064440         0.373235
 H        -3.095066        -2.643987         0.936905
 H        -3.719348        -1.312264         1.724266
 H        -3.975417        -1.399073        -0.046481
 H        -1.905832        -0.240907         1.740517
 H        -2.431567         1.261129        -0.483362
 H        -1.970112        -1.053055        -1.722353
 H        -0.344198        -0.377856        -1.965119
 H        -0.412476        -3.573295         0.208454
 H         0.895293        -2.697573        -0.721287
 H         0.822085        -2.536478         1.004400
