19
Iteration:  2672charge 0 multiplicity 1
 C        -3.088943        -1.737405         0.042245
 C        -1.989960        -0.743436         0.449400
 C        -1.561898         0.352732        -0.576247
 C        -0.733250        -0.759672        -1.222987
 C        -0.520911        -1.212041         0.126637
 C        -0.050396        -2.571669         0.471446
 C         0.191287         0.117842         0.740910
 O         1.068325         0.234500         1.522368
 O        -0.409415         1.196878         0.228101
 H        -3.444632        -1.702230        -0.942903
 H        -2.932648        -2.758484         0.386489
 H        -3.895675        -1.344924         0.582740
 H        -2.105347        -0.579690         1.571927
 H        -2.217013         1.187728        -1.041946
 H        -1.402040        -1.372252        -1.827514
 H         0.158346        -0.633157        -1.910638
 H        -0.676620        -3.415845        -0.045868
 H         1.018667        -2.630097         0.318736
 H        -0.308322        -2.658512         1.573089
