19
Iteration:  4044charge 0 multiplicity 1
 C        -3.032526        -1.859157         0.474204
 C        -1.857114        -0.823901         0.623957
 C        -1.686936         0.529712        -0.263999
 C        -1.088676        -0.330580        -1.404102
 C        -0.474415        -1.092715        -0.089412
 C         0.296995        -2.381185        -0.113692
 C         0.214731        -0.015304         0.685464
 O         1.027271        -0.161996         1.560143
 O        -0.516870         1.084288         0.303813
 H        -2.913562        -2.783195         1.072629
 H        -3.988010        -1.485188         0.634010
 H        -3.028008        -2.169854        -0.583243
 H        -1.770637        -0.717236         1.684972
 H        -2.400546         1.385123        -0.313087
 H        -1.859373        -1.065134        -1.752886
 H        -0.476333         0.242130        -2.114423
 H         1.111249        -2.402481        -0.836851
 H         0.739687        -2.502984         0.917664
 H        -0.365415        -3.245252        -0.428264
