19
Iteration:  2602charge 0 multiplicity 1
 C        -3.282015        -1.574149         0.256126
 C        -1.967991        -0.813426         0.431667
 C        -1.523888         0.419549        -0.710799
 C        -0.730741        -0.667473        -1.388280
 C        -0.405644        -1.189444         0.064797
 C         0.247477        -2.523867         0.545154
 C         0.151575         0.047186         0.726995
 O         0.946180         0.023112         1.630175
 O        -0.486739         1.141821         0.210653
 H        -3.415714        -2.297187        -0.601845
 H        -3.642489        -2.046817         1.186971
 H        -4.035384        -0.762089         0.033654
 H        -2.144031        -0.260593         1.298478
 H        -2.123386         1.054411        -1.282472
 H        -1.403671        -1.413866        -1.921229
 H         0.030183        -0.466639        -2.131282
 H        -0.320005        -3.301593         0.186614
 H         1.249654        -2.558227         0.120792
 H         0.272025        -2.628655         1.600180
