19
Iteration:  1025
 C        -3.135566        -1.547938         0.739591
 C        -1.803674        -0.780481         0.888836
 C        -1.709324         0.491116        -0.086575
 C        -1.332184        -0.531337        -1.241675
 C        -0.556729        -1.215793         0.074917
 C         0.060104        -2.661812         0.151891
 C         0.323379        -0.015597         0.415746
 O         1.442732         0.044838         0.836008
 O        -0.434959         1.125277         0.111381
 H        -3.332788        -2.197978         1.569079
 H        -4.088056        -1.007209         0.668094
 H        -3.031771        -2.154224        -0.133226
 H        -1.538463        -0.583522         1.942350
 H        -2.582281         1.192443        -0.220059
 H        -2.029064        -1.225367        -1.706248
 H        -0.675202        -0.074707        -2.063288
 H         0.079971        -3.070431        -0.861971
 H         1.079666        -2.699697         0.632435
 H        -0.459413        -3.416827         0.725068
