19
Iteration:  2517charge 0 multiplicity 1
 C        -3.072428        -1.620499        -0.099530
 C        -2.013334        -0.760818         0.462883
 C        -1.567182         0.303456        -0.571889
 C        -0.621278        -0.650683        -1.188702
 C        -0.542360        -1.229656         0.241636
 C        -0.203713        -2.611507         0.628990
 C         0.178505         0.060337         0.751651
 O         1.265971         0.323525         1.293616
 O        -0.556360         1.052711         0.345739
 H        -2.779526        -1.904027        -1.085698
 H        -3.115759        -2.544618         0.455405
 H        -4.007573        -1.166249        -0.061202
 H        -2.288575        -0.393958         1.469585
 H        -2.098063         1.065270        -1.177812
 H        -1.199504        -1.329963        -1.939682
 H         0.236388        -0.236659        -1.675941
 H        -1.024514        -3.317883         0.197412
 H         0.749851        -3.001078         0.195106
 H        -0.037579        -2.730642         1.743317
