19
Iteration:   465
 C        -2.985686        -1.450286         1.156589
 C        -1.758934        -0.655739         0.998140
 C        -1.747365         0.461508        -0.107753
 C        -1.443042        -0.765848        -1.037506
 C        -0.591717        -1.206876         0.082003
 C        -0.068224        -2.624784         0.054639
 C         0.343380        -0.052757         0.177512
 O         1.515303         0.046258         0.435818
 O        -0.442938         1.130389         0.107382
 H        -2.782656        -2.233605         1.857328
 H        -3.754450        -0.777895         1.670322
 H        -3.375114        -1.847315         0.217946
 H        -1.270236        -0.386883         1.947899
 H        -2.484572         1.255401        -0.230121
 H        -2.211212        -1.459287        -1.344451
 H        -0.987703        -0.627123        -2.086779
 H         0.704876        -2.634005         0.861527
 H        -0.831203        -3.401260         0.373210
 H         0.552498        -2.836745        -0.837566
