19
Iteration:  1126
 C        -3.025273        -1.621885         0.640390
 C        -1.870545        -0.744266         0.842226
 C        -1.736160         0.482217        -0.234337
 C        -1.186833        -0.518748        -1.218790
 C        -0.569592        -1.209532         0.087073
 C        -0.117822        -2.647601         0.223905
 C         0.351271        -0.029067         0.438698
 O         1.493576         0.077377         0.816247
 O        -0.472185         1.129513         0.230683
 H        -2.655731        -2.570995         0.378460
 H        -3.533798        -1.847819         1.584818
 H        -3.858123        -1.423072         0.002763
 H        -1.643868        -0.522217         1.905622
 H        -2.424517         1.325652        -0.334247
 H        -2.010161        -1.207337        -1.595960
 H        -0.662238        -0.101154        -2.074182
 H        -0.185887        -2.953977         1.328220
 H        -0.792065        -3.310602        -0.221084
 H         0.984240        -2.887557        -0.053162
