19
Iteration:  4883
 C        -3.029893        -1.777365        -0.029439
 C        -2.036541        -0.881634         0.464396
 C        -1.775814         0.500139        -0.126653
 C        -0.811571        -0.443013        -1.145143
 C        -0.520390        -1.210310         0.093530
 C         0.035930        -2.621759         0.082526
 C         0.315476        -0.023442         0.726237
 O         1.447001         0.278675         1.048122
 O        -0.718255         1.026413         0.714888
 H        -3.218352        -2.854233         0.295753
 H        -3.986442        -1.316244         0.385489
 H        -3.175597        -1.785652        -1.176883
 H        -2.352036        -0.747739         1.596022
 H        -2.604125         1.225925        -0.239849
 H        -1.247043        -1.017222        -1.984090
 H        -0.077193         0.314463        -1.530661
 H        -0.621482        -3.450870        -0.012789
 H         0.940956        -2.828950        -0.445637
 H         0.246498        -2.589406         1.171950
