19
Iteration:  4330charge 0 multiplicity 1
 C        -3.101343        -1.825446         0.288082
 C        -1.883496        -0.865572         0.606591
 C        -1.801642         0.452973        -0.294535
 C        -1.004751        -0.355833        -1.317403
 C        -0.497130        -1.145240        -0.001931
 C         0.178005        -2.533046        -0.075996
 C         0.269654        -0.021217         0.753232
 O         1.231964         0.072383         1.437662
 O        -0.564054         1.102331         0.458694
 H        -2.773059        -2.884656         0.088855
 H        -3.940814        -1.659452         0.985156
 H        -3.470285        -1.473965        -0.738967
 H        -1.862519        -0.726909         1.685389
 H        -2.501108         1.166544        -0.722478
 H        -1.573233        -1.068587        -1.928969
 H        -0.185697         0.172229        -1.855803
 H         0.388487        -2.753065        -1.213636
 H         1.212422        -2.292615         0.357360
 H        -0.210070        -3.414256         0.565700
