19
Iteration:  2330
 C        -3.123007        -1.652647        -0.030066
 C        -2.009432        -0.702150         0.432064
 C        -1.552371         0.461966        -0.595516
 C        -0.864917        -0.681284        -1.298790
 C        -0.540734        -1.225286         0.184762
 C         0.132748        -2.624988         0.673011
 C         0.246076         0.003171         0.654523
 O         0.994597         0.112211         1.598567
 O        -0.418863         1.166506         0.180457
 H        -3.076806        -1.908638        -1.071436
 H        -3.339914        -2.446709         0.621381
 H        -4.045427        -1.097426         0.084588
 H        -2.068960        -0.435605         1.506620
 H        -2.088721         1.177164        -1.287016
 H        -1.490678        -1.252652        -1.935062
 H         0.029236        -0.392940        -1.926642
 H        -0.591959        -3.391129         0.763511
 H         1.021325        -2.917908         0.002321
 H         0.661218        -2.396437         1.588617
