19
Iteration:   913charge 0 multiplicity 1
 C        -3.188756        -1.483527         0.739889
 C        -1.782776        -0.724728         0.892407
 C        -1.723992         0.427839        -0.024791
 C        -1.418236        -0.680606        -1.180216
 C        -0.518147        -1.187097        -0.082976
 C         0.160070        -2.620115         0.201430
 C         0.396379         0.019390         0.316492
 O         1.533653        -0.028229         0.709426
 O        -0.533158         1.167375         0.237156
 H        -3.489831        -1.623575         1.810754
 H        -3.943975        -0.790796         0.494097
 H        -3.078822        -2.335005         0.059778
 H        -1.680168        -0.474735         1.956154
 H        -2.586604         1.036066        -0.001010
 H        -2.289812        -1.387193        -1.347141
 H        -0.885688        -0.460808        -2.108217
 H         0.125583        -2.875249         1.280300
 H        -0.659047        -3.284341        -0.316805
 H         1.090631        -2.705193        -0.303669
