19
Iteration:  3701
 C        -3.073904        -1.670323        -0.046255
 C        -2.010399        -0.849777         0.595395
 C        -1.786364         0.431562        -0.180606
 C        -0.886166        -0.565673        -1.229398
 C        -0.533424        -1.214044         0.198619
 C         0.088188        -2.599433         0.075182
 C         0.259271         0.050161         0.760067
 O         1.433919         0.258709         1.047664
 O        -0.635174         1.057021         0.668348
 H        -3.787949        -1.071445        -0.606293
 H        -2.603570        -2.610056        -0.464697
 H        -3.651316        -2.141699         0.764168
 H        -2.251211        -0.511723         1.623161
 H        -2.615586         1.185503        -0.267672
 H        -1.426651        -1.336133        -1.756780
 H        -0.055996        -0.154295        -2.012761
 H         1.051858        -2.678254        -0.357954
 H         0.104249        -3.087443         1.002910
 H        -0.539896        -3.288226        -0.400349
