19
Iteration:  1683
 C        -3.221816        -1.514886         0.397989
 C        -1.968665        -0.670642         0.547383
 C        -1.610383         0.390508        -0.498466
 C        -0.834457        -0.665794        -1.431867
 C        -0.568470        -1.254326         0.048026
 C         0.203367        -2.465128         0.401364
 C         0.196092        -0.045140         0.630468
 O         1.114384         0.019703         1.420417
 O        -0.466828         1.067874         0.232922
 H        -3.999373        -0.807190         0.441611
 H        -3.197431        -2.070710        -0.496301
 H        -3.422405        -2.142095         1.277877
 H        -1.873993        -0.219327         1.537964
 H        -2.428344         1.071632        -0.869137
 H        -1.473191        -1.222244        -2.057996
 H         0.105323        -0.450707        -2.009270
 H        -0.151400        -3.416275        -0.124999
 H         1.256370        -2.324586         0.241749
 H         0.158268        -2.780000         1.507795
