19
Iteration:   451
 C        -3.037691        -1.448429         1.119698
 C        -1.706398        -0.686399         1.078431
 C        -1.793071         0.425802        -0.028198
 C        -1.551311        -0.691571        -1.122489
 C        -0.635081        -1.257652         0.114902
 C        -0.000545        -2.609856         0.115754
 C         0.391152        -0.001923         0.261936
 O         1.560392         0.075443         0.408744
 O        -0.382752         1.059419        -0.011727
 H        -3.105923        -2.112376         2.001050
 H        -3.870087        -0.690618         1.189318
 H        -3.287615        -2.067327         0.241493
 H        -1.445087        -0.331487         2.110683
 H        -2.554964         1.181888        -0.037781
 H        -2.464291        -1.355766        -1.267765
 H        -0.958921        -0.382791        -2.010263
 H         0.471763        -2.929499         0.999937
 H        -0.707642        -3.322315        -0.270859
 H         0.781389        -2.570123        -0.784826
