19
Iteration:  1072
 C        -3.213578        -1.518172         0.731354
 C        -2.015041        -0.672043         0.810117
 C        -1.734098         0.491105        -0.237675
 C        -1.143879        -0.586540        -1.235751
 C        -0.534200        -1.259195         0.089963
 C         0.152485        -2.632450         0.179418
 C         0.312549        -0.079644         0.477275
 O         1.502120         0.026847         0.673619
 O        -0.513472         1.078221         0.356013
 H        -3.073997        -2.549032         0.993058
 H        -3.745568        -1.247655         1.659824
 H        -3.852060        -1.387213        -0.146957
 H        -1.783752        -0.177560         1.780605
 H        -2.382434         1.374130        -0.368087
 H        -2.048575        -1.135997        -1.640059
 H        -0.495716        -0.403640        -2.089341
 H        -0.367391        -3.589377         0.002120
 H         0.887592        -2.484886        -0.506359
 H         0.847459        -2.662227         1.087591
