19
Iteration:  4609charge 0 multiplicity 1
 C        -3.131263        -1.814245         0.099340
 C        -1.977995        -0.917433         0.547514
 C        -1.735572         0.383016        -0.211442
 C        -0.850431        -0.291702        -1.243994
 C        -0.449423        -1.149701         0.144700
 C         0.088268        -2.575467         0.006079
 C         0.212024         0.025578         0.793456
 O         1.365574         0.221862         1.175723
 O        -0.619936         1.009592         0.575353
 H        -3.308839        -2.668775         0.711060
 H        -3.961672        -1.180465         0.129456
 H        -3.210432        -2.175849        -0.927621
 H        -2.122761        -0.862912         1.575741
 H        -2.551863         1.097070        -0.399811
 H        -1.565441        -0.905294        -1.829281
 H        -0.047061         0.304017        -1.727845
 H        -0.239073        -2.990995        -0.975653
 H         1.225508        -2.658322         0.033573
 H        -0.324070        -3.238879         0.822602
