19
Iteration:  3154
 C        -3.053567        -1.758088         0.055684
 C        -2.029227        -0.718135         0.556830
 C        -1.600727         0.395584        -0.391262
 C        -0.803997        -0.574772        -1.318638
 C        -0.517796        -1.145567         0.081671
 C        -0.030166        -2.573262         0.250600
 C         0.236741         0.024536         0.747122
 O         1.187433         0.198262         1.430945
 O        -0.535351         1.091271         0.409024
 H        -3.329442        -2.431258         0.898336
 H        -3.881610        -1.334304        -0.428068
 H        -2.576045        -2.584279        -0.502242
 H        -2.220153        -0.529741         1.587845
 H        -2.294714         1.096841        -0.793893
 H        -1.312744        -1.292501        -2.020073
 H         0.074029        -0.175078        -1.766956
 H        -0.808623        -3.333717         0.353256
 H         0.607957        -2.784885        -0.668133
 H         0.576676        -2.717234         1.171992
