19
Iteration:  4552charge 0 multiplicity 1
 C        -3.010689        -1.928767         0.285865
 C        -1.995048        -0.791654         0.643909
 C        -1.682950         0.543275        -0.272179
 C        -1.004897        -0.333202        -1.351057
 C        -0.515066        -1.102854        -0.088098
 C         0.223369        -2.398653        -0.011428
 C         0.275495        -0.051517         0.690384
 O         1.157719        -0.133201         1.498881
 O        -0.592765         1.135946         0.391366
 H        -2.760870        -2.947846         0.592800
 H        -3.883242        -1.783881         0.959400
 H        -3.261912        -1.937208        -0.752623
 H        -1.871907        -0.712493         1.684489
 H        -2.483661         1.265976        -0.525368
 H        -1.639697        -0.817469        -2.141611
 H        -0.203384         0.170444        -1.946174
 H         0.045534        -3.241195        -0.746782
 H         1.290143        -2.119857        -0.026468
 H        -0.072622        -2.822267         0.944552
