19
Iteration:   727
 C        -3.252776        -1.471910         1.186391
 C        -1.830308        -0.788943         0.883877
 C        -1.750116         0.428123        -0.208180
 C        -1.216725        -0.632662        -1.201468
 C        -0.545841        -1.189835         0.045424
 C         0.009706        -2.541444         0.051690
 C         0.367721        -0.015403         0.305771
 O         1.534465         0.011879         0.581806
 O        -0.456752         1.061470         0.178581
 H        -3.257873        -1.983337         2.179588
 H        -4.061943        -0.730354         1.382123
 H        -3.621851        -2.249722         0.485826
 H        -1.527628        -0.450588         1.901034
 H        -2.486323         1.199514        -0.550755
 H        -2.074556        -1.175982        -1.709560
 H        -0.572183        -0.089562        -1.965033
 H         1.010721        -2.372657         0.518274
 H        -0.475013        -3.337939         0.719920
 H         0.145775        -3.103949        -0.879974
