19
Iteration:  1478charge 0 multiplicity 1
 C        -3.240561        -1.581790         0.401730
 C        -1.927581        -0.796754         0.655482
 C        -1.621276         0.382271        -0.361277
 C        -0.958297        -0.683873        -1.233428
 C        -0.491893        -1.223727         0.075172
 C         0.033705        -2.664775         0.271575
 C         0.281498         0.069831         0.616569
 O         1.311541         0.165465         1.212473
 O        -0.492674         1.187478         0.201950
 H        -3.214476        -2.738803         0.392298
 H        -3.889657        -1.406881         1.225801
 H        -3.703847        -1.222622        -0.564818
 H        -1.819805        -0.377263         1.655338
 H        -2.296451         1.190728        -0.691612
 H        -1.557288        -1.435646        -1.728645
 H        -0.262921        -0.197527        -2.034842
 H        -0.794905        -3.217980         0.701762
 H         0.328020        -3.265845        -0.642035
 H         0.896659        -2.643978         0.985111
