19
Iteration:  2576charge 0 multiplicity 1
 C        -3.086543        -1.603086         0.150044
 C        -2.043672        -0.665117         0.498523
 C        -1.538123         0.445866        -0.583013
 C        -0.695406        -0.676545        -1.430284
 C        -0.562634        -1.196617         0.087591
 C         0.108403        -2.463072         0.586721
 C         0.205703        -0.034574         0.711508
 O         1.036204         0.054360         1.578127
 O        -0.551172         1.031450         0.191450
 H        -2.691425        -2.373494        -0.570152
 H        -3.437360        -2.145209         1.064806
 H        -4.020298        -1.180663        -0.377879
 H        -2.182325        -0.080147         1.463320
 H        -2.278944         1.158072        -1.094122
 H        -1.258547        -1.333882        -2.033770
 H         0.286613        -0.452398        -1.981383
 H        -0.522262        -3.398478         0.441341
 H         0.985603        -2.511100        -0.094062
 H         0.383967        -2.400631         1.665597
