19
Iteration:   776charge 0 multiplicity 1
 C        -2.992238        -1.463728         0.998584
 C        -1.783870        -0.641913         0.954472
 C        -1.713367         0.434181        -0.198690
 C        -1.379002        -0.741982        -1.180674
 C        -0.655041        -1.194028         0.014865
 C         0.053707        -2.490243         0.053895
 C         0.302094        -0.079899         0.325475
 O         1.434834         0.022148         0.715305
 O        -0.406585         1.044366         0.146785
 H        -3.016159        -2.527595         1.227666
 H        -3.676457        -1.038084         1.745904
 H        -3.512514        -1.362769         0.054847
 H        -1.432038        -0.262164         1.928664
 H        -2.552402         1.130542        -0.373034
 H        -2.280399        -1.318577        -1.292869
 H        -0.838018        -0.573360        -2.100984
 H         0.994431        -2.545717        -0.461938
 H         0.240297        -2.776685         1.054605
 H        -0.665641        -3.322341        -0.176881
