19
Iteration:  1379
 C        -3.162046        -1.535336         0.414371
 C        -1.919192        -0.694895         0.757733
 C        -1.648163         0.393695        -0.272430
 C        -1.154286        -0.629902        -1.255129
 C        -0.491456        -1.231691         0.162582
 C         0.033929        -2.676108         0.223466
 C         0.356753        -0.014088         0.539659
 O         1.386258         0.169924         1.137204
 O        -0.506970         1.083951         0.158518
 H        -4.047058        -1.487247         1.091187
 H        -3.636213        -1.205007        -0.490198
 H        -2.859111        -2.607342         0.301748
 H        -1.852735        -0.397725         1.810889
 H        -2.530027         1.064693        -0.513221
 H        -1.850596        -1.278222        -1.777898
 H        -0.446070        -0.159696        -2.056699
 H         1.143781        -2.558702         0.099480
 H        -0.021938        -2.888784         1.337190
 H        -0.458121        -3.541870        -0.340949
