19
Iteration:  2509charge 0 multiplicity 1
 C        -3.089893        -1.595591        -0.098214
 C        -2.006400        -0.738788         0.422809
 C        -1.540788         0.349835        -0.517702
 C        -0.545795        -0.689510        -1.211369
 C        -0.502248        -1.258188         0.221832
 C        -0.149486        -2.645267         0.648055
 C         0.166559         0.023165         0.786481
 O         1.219749         0.292787         1.230387
 O        -0.618393         1.112260         0.341130
 H        -3.031473        -1.845820        -1.163197
 H        -3.144098        -2.530010         0.542760
 H        -4.110926        -1.174958         0.017624
 H        -2.279832        -0.393891         1.482988
 H        -2.248773         1.198077        -0.785581
 H        -1.109718        -1.281121        -1.947031
 H         0.359297        -0.379665        -1.729083
 H        -0.961045        -3.396363         0.333835
 H         0.826359        -2.949228         0.345538
 H        -0.216548        -2.728232         1.779469
