19
Iteration:  1618
 C        -3.129734        -1.597784         0.230149
 C        -1.923786        -0.756347         0.650049
 C        -1.676175         0.361078        -0.352483
 C        -0.890550        -0.615963        -1.263209
 C        -0.495267        -1.174898         0.116635
 C        -0.057204        -2.575336         0.364183
 C         0.305239        -0.045618         0.625780
 O         1.282265         0.213735         1.300448
 O        -0.502909         1.045518         0.195501
 H        -3.230452        -1.535048        -0.896346
 H        -3.097737        -2.663153         0.460132
 H        -4.079785        -1.144927         0.652218
 H        -2.003543        -0.387697         1.677257
 H        -2.451388         1.144463        -0.623829
 H        -1.551808        -1.206047        -1.812521
 H        -0.037756        -0.359370        -1.953458
 H         0.486246        -2.963657        -0.568656
 H         0.616100        -2.649066         1.190021
 H        -1.015708        -3.183650         0.531481
