19
Iteration:   219
 C        -2.986413        -1.550471         1.313443
 C        -1.647451        -0.651871         1.195894
 C        -1.732406         0.435291         0.123706
 C        -1.598919        -0.593512        -0.964462
 C        -0.566851        -1.214601         0.047061
 C        -0.107803        -2.618795        -0.065544
 C         0.377745        -0.013904         0.094308
 O         1.577247         0.006585         0.263755
 O        -0.413988         1.079893        -0.072765
 H        -2.833383        -2.603327         0.983674
 H        -3.309209        -1.559816         2.343395
 H        -3.856864        -1.119421         0.760430
 H        -1.278240        -0.247452         2.168727
 H        -2.527200         1.259485         0.131102
 H        -2.445372        -1.247603        -1.096026
 H        -1.362545        -0.088867        -1.843683
 H         0.432195        -3.025318         0.812668
 H        -1.075581        -3.098350        -0.216496
 H         0.498853        -2.822483        -1.037767
