19
Iteration:  3225charge 0 multiplicity 1
 C        -3.158508        -1.668849        -0.202526
 C        -2.025972        -0.834399         0.548364
 C        -1.664456         0.368528        -0.299230
 C        -0.917046        -0.515752        -1.227766
 C        -0.553738        -1.191559         0.210388
 C         0.230152        -2.505933         0.484129
 C         0.216560         0.037402         0.738724
 O         1.324621         0.055625         1.144813
 O        -0.579188         1.101725         0.487521
 H        -3.882481        -1.890676         0.551434
 H        -3.611788        -1.076631        -1.083011
 H        -2.884511        -2.710696        -0.398288
 H        -2.288886        -0.604945         1.620324
 H        -2.313531         1.182016        -0.683986
 H        -1.621382        -1.035407        -1.859656
 H        -0.262168         0.127374        -1.915352
 H         0.084967        -3.236167        -0.283248
 H         1.206225        -2.249371         0.620475
 H        -0.187907        -2.959859         1.340989
