19
Iteration:  3426charge 0 multiplicity 1
 C        -3.155815        -1.748686         0.102155
 C        -2.015420        -0.851633         0.500680
 C        -1.718448         0.396789        -0.311247
 C        -0.765402        -0.481496        -1.211524
 C        -0.521837        -1.185215         0.199063
 C         0.002904        -2.580297         0.241116
 C         0.225882         0.040686         0.801518
 O         1.392129         0.239941         1.039337
 O        -0.584797         1.055102         0.559993
 H        -3.312556        -1.944372        -1.007171
 H        -3.194491        -2.747830         0.509241
 H        -4.090727        -1.183758         0.467951
 H        -2.281303        -0.577782         1.561427
 H        -2.422043         1.166250        -0.680820
 H        -0.967962        -1.088984        -2.191626
 H         0.108789         0.009450        -1.649085
 H         1.062536        -2.650593         0.433709
 H        -0.527380        -3.258753         0.821660
 H        -0.223632        -3.180493        -0.661992
