19
Iteration:  3437charge 0 multiplicity 1
 C        -3.172497        -1.760924         0.052019
 C        -2.071120        -0.795796         0.574331
 C        -1.677883         0.372314        -0.287791
 C        -0.714921        -0.435448        -1.262406
 C        -0.489827        -1.181437         0.229839
 C        -0.009261        -2.675957         0.262155
 C         0.263543         0.027092         0.751373
 O         1.432631         0.252602         1.031224
 O        -0.684087         1.040416         0.544407
 H        -2.944349        -2.098779        -1.014774
 H        -3.246987        -2.549532         0.784705
 H        -4.167922        -1.191523        -0.007855
 H        -2.152183        -0.579672         1.672907
 H        -2.397502         1.188836        -0.509161
 H        -1.384611        -1.014553        -2.009766
 H         0.138431         0.186255        -1.502484
 H         1.055870        -2.843900         0.301119
 H        -0.440538        -3.172410         1.056260
 H        -0.283478        -2.869165        -0.764783
