19
Iteration:   366
 C        -3.018433        -1.586458         1.274904
 C        -1.820071        -0.727329         1.104001
 C        -1.773680         0.468213        -0.048701
 C        -1.441085        -0.561828        -1.157163
 C        -0.653791        -1.220162         0.078877
 C        -0.104725        -2.612023         0.167222
 C         0.401792        -0.040787         0.174742
 O         1.621139         0.013430         0.236648
 O        -0.402416         1.140817         0.055646
 H        -3.839636        -1.022012         1.673454
 H        -3.300377        -2.240062         0.393713
 H        -2.712510        -2.181622         2.143077
 H        -1.495278        -0.380001         2.089294
 H        -2.555142         1.172316        -0.149178
 H        -2.324042        -1.144638        -1.488696
 H        -0.796299        -0.028619        -1.936168
 H        -0.835142        -3.259984        -0.373827
 H         0.844149        -2.745494        -0.407259
 H         0.138857        -2.934709         1.247219
