19
Iteration:  3062
 C        -3.322458        -1.692149         0.306086
 C        -1.995880        -0.786541         0.500485
 C        -1.615821         0.372567        -0.553074
 C        -0.654113        -0.541627        -1.297524
 C        -0.463235        -1.225680         0.125927
 C         0.185523        -2.575902         0.180452
 C         0.203668         0.055391         0.732741
 O         1.073079         0.117420         1.544934
 O        -0.545763         1.138273         0.269536
 H        -3.158292        -2.573358        -0.187223
 H        -3.751400        -1.788106         1.311236
 H        -3.987280        -1.164675        -0.308440
 H        -2.015450        -0.297231         1.522622
 H        -2.102533         1.129872        -1.287844
 H        -1.123762        -1.259233        -1.925887
 H         0.211074        -0.098543        -1.833798
 H        -0.296979        -3.541755        -0.259397
 H         1.205382        -2.479418        -0.194803
 H         0.209399        -2.949408         1.244421
