19
Iteration:  4592charge 0 multiplicity 1
 C        -3.086343        -1.798474         0.109404
 C        -1.908959        -0.895419         0.621037
 C        -1.713576         0.445349        -0.169390
 C        -0.960306        -0.424465        -1.277625
 C        -0.475377        -1.168326        -0.040858
 C         0.074737        -2.529349         0.002861
 C         0.299773        -0.000390         0.659587
 O         1.335759         0.135169         1.346532
 O        -0.693596         1.113914         0.565601
 H        -2.984585        -2.775572         0.684630
 H        -4.178592        -1.446162         0.285531
 H        -2.850213        -1.914553        -0.971845
 H        -1.905860        -0.702711         1.795666
 H        -2.434251         1.194134        -0.503426
 H        -1.448077        -1.034982        -2.016309
 H        -0.220343         0.181049        -1.810084
 H        -0.126055        -3.023870        -0.939903
 H         1.123532        -2.557800         0.226015
 H        -0.324605        -3.108952         0.853736
