19
Iteration:  2909
 C        -3.227895        -1.639344        -0.002277
 C        -2.004739        -0.800972         0.530498
 C        -1.671981         0.366031        -0.522878
 C        -0.713768        -0.701574        -1.183112
 C        -0.420194        -1.235637         0.195815
 C         0.084366        -2.636109         0.388956
 C         0.228301         0.072717         0.746331
 O         1.136530         0.308347         1.503865
 O        -0.487885         1.115382         0.196774
 H        -4.119211        -1.371307         0.527521
 H        -3.420833        -1.345213        -1.100375
 H        -3.068272        -2.719919         0.056433
 H        -2.169693        -0.450012         1.550967
 H        -2.526387         1.102521        -0.895859
 H        -1.120709        -1.333051        -2.032241
 H         0.061420        -0.183435        -1.683974
 H        -0.795155        -3.389876         0.154292
 H         0.992077        -3.136251        -0.098654
 H         0.188821        -2.706424         1.524050
