19
Iteration:  4189
 C        -3.073932        -1.859679         0.060709
 C        -1.993263        -0.862801         0.547370
 C        -1.816096         0.515750        -0.065726
 C        -0.926998        -0.284615        -1.280915
 C        -0.561228        -1.166096         0.081469
 C         0.202236        -2.569242         0.127740
 C         0.247172        -0.053669         0.681263
 O         1.420210         0.120925         0.989229
 O        -0.672423         1.074319         0.691803
 H        -3.477003        -2.538505         0.791067
 H        -3.845708        -1.233300        -0.326233
 H        -2.906966        -2.563010        -0.700984
 H        -1.856875        -0.674997         1.598729
 H        -2.633454         1.238166        -0.158613
 H        -1.676565        -0.945378        -1.705879
 H         0.022596         0.124026        -1.802859
 H         1.278005        -2.374634         0.280906
 H        -0.026743        -3.185352         1.003999
 H        -0.091034        -3.262864        -0.649767
