19
Iteration:  2613
 C        -3.340680        -1.575488         0.270561
 C        -1.956741        -0.797381         0.443770
 C        -1.458511         0.406520        -0.607818
 C        -0.649558        -0.710995        -1.444351
 C        -0.521715        -1.222406         0.122921
 C         0.224684        -2.542460         0.471115
 C         0.190204         0.045562         0.732203
 O         0.926992         0.106186         1.663140
 O        -0.511062         1.147546         0.119713
 H        -3.423200        -2.096397        -0.730046
 H        -3.639944        -2.277931         1.083929
 H        -4.054606        -0.684406         0.282444
 H        -1.885367        -0.512191         1.457119
 H        -2.033001         1.152112        -1.072350
 H        -1.507514        -1.327864        -1.855354
 H         0.251526        -0.611868        -2.021972
 H        -0.128964        -3.320219        -0.088328
 H         1.259366        -2.464550         0.125151
 H         0.332549        -2.815163         1.481907
