19
Iteration:    21charge 0 multiplicity 1
 C        -2.744481        -1.575921         1.663281
 C        -1.706489        -0.620126         1.056453
 C        -1.778555         0.583710        -0.022440
 C        -1.732349        -0.566507        -1.142292
 C        -0.697754        -1.208696        -0.023522
 C        -0.119266        -2.658689        -0.089575
 C         0.375337        -0.071380         0.096680
 O         1.556376        -0.058057        -0.012836
 O        -0.363345         1.108670         0.302615
 H        -3.065328        -1.370942         2.650396
 H        -3.683566        -1.774974         1.121964
 H        -2.308532        -2.566131         1.724760
 H        -1.225374        -0.154612         1.954402
 H        -2.452165         1.432781        -0.061250
 H        -2.630905        -1.147170        -1.047986
 H        -1.320027        -0.411179        -2.134786
 H         0.970462        -2.684418         0.329223
 H        -0.746767        -3.400165         0.441453
 H        -0.082093        -2.982516        -1.087713
