19
Iteration:  3136charge 0 multiplicity 1
 C        -3.015512        -1.762375         0.071739
 C        -1.967481        -0.754028         0.570694
 C        -1.659123         0.471408        -0.445087
 C        -0.902856        -0.474533        -1.249591
 C        -0.510836        -1.212337         0.142337
 C         0.096588        -2.551258         0.273417
 C         0.224817         0.025432         0.747542
 O         1.103351         0.071824         1.568681
 O        -0.478890         1.097194         0.164424
 H        -3.168514        -2.630437         0.796744
 H        -3.992098        -1.151345        -0.034335
 H        -2.790622        -2.317441        -0.914943
 H        -2.128965        -0.461128         1.659515
 H        -2.438184         1.316293        -0.625540
 H        -1.571347        -1.169268        -1.874103
 H        -0.104930        -0.057831        -1.936691
 H        -0.642974        -3.337839         0.437120
 H         0.618364        -2.810553        -0.633681
 H         0.726428        -2.650047         1.116574
