19
Iteration:   734
 C        -3.295653        -1.470087         1.230419
 C        -1.865175        -0.772631         0.877566
 C        -1.787972         0.390162        -0.250038
 C        -1.238704        -0.569859        -1.201022
 C        -0.527793        -1.217844         0.046609
 C         0.118826        -2.554596         0.039112
 C         0.330456        -0.008492         0.384858
 O         1.531461        -0.017836         0.575473
 O        -0.427890         1.088533         0.140625
 H        -3.102042        -2.129317         2.068969
 H        -4.086211        -0.693768         1.474519
 H        -3.642972        -2.160928         0.446974
 H        -1.614630        -0.399748         1.884652
 H        -2.398184         1.282139        -0.525255
 H        -1.955074        -1.240066        -1.587417
 H        -0.507699        -0.174198        -1.913748
 H         1.125736        -2.645972         0.397557
 H        -0.496936        -3.045578         0.780664
 H        -0.085195        -3.149053        -1.005060
