19
Iteration:  2257
 C        -3.186737        -1.694262         0.008470
 C        -2.071215        -0.663040         0.328235
 C        -1.397778         0.477474        -0.655153
 C        -0.579940        -0.750016        -1.146098
 C        -0.587142        -1.221882         0.262484
 C        -0.062848        -2.633588         0.564888
 C         0.120389        -0.033107         0.837007
 O         1.218502         0.252612         1.234550
 O        -0.592954         1.143854         0.401260
 H        -3.190613        -2.256280        -0.967530
 H        -3.161223        -2.449099         0.914749
 H        -4.244384        -1.360537         0.079853
 H        -2.339356        -0.035260         1.169926
 H        -1.906359         1.102058        -1.313544
 H        -1.016935        -1.509150        -1.824732
 H         0.342345        -0.449167        -1.591558
 H        -0.475035        -3.419079        -0.125390
 H         0.972277        -2.542618         0.476577
 H        -0.123008        -2.853939         1.658748
