19
Iteration:   768
 C        -3.055758        -1.430283         1.046611
 C        -1.804016        -0.619748         0.945054
 C        -1.720040         0.434640        -0.271288
 C        -1.361549        -0.682839        -1.120805
 C        -0.671755        -1.263011         0.071421
 C         0.107645        -2.529926         0.031062
 C         0.323783        -0.064437         0.284963
 O         1.452810         0.004107         0.700606
 O        -0.470929         1.025707         0.184332
 H        -2.745200        -2.412165         1.392084
 H        -3.767452        -0.999485         1.824271
 H        -3.554806        -1.430181         0.062953
 H        -1.341136        -0.162031         1.835504
 H        -2.456358         1.238844        -0.581654
 H        -2.116345        -1.300445        -1.544745
 H        -0.653543        -0.562538        -1.971595
 H         1.079191        -2.429446        -0.425314
 H         0.139583        -2.836653         1.094315
 H        -0.420345        -3.382348        -0.670013
