19
Iteration:  1331charge 0 multiplicity 1
 C        -3.224851        -1.553653         0.542822
 C        -2.022982        -0.682603         0.710284
 C        -1.748716         0.402781        -0.342143
 C        -0.943211        -0.584693        -1.284845
 C        -0.532439        -1.214107         0.115482
 C         0.163826        -2.572173         0.335092
 C         0.274537         0.028189         0.525299
 O         1.448478        -0.004192         0.891883
 O        -0.547950         1.054988         0.375201
 H        -4.138267        -0.913040         0.464182
 H        -3.285914        -2.257316        -0.422407
 H        -3.430975        -2.150675         1.464922
 H        -2.132588        -0.166804         1.701697
 H        -2.496782         1.082808        -0.718195
 H        -1.552345        -1.228313        -2.014629
 H        -0.228808        -0.013661        -1.823405
 H         0.618449        -2.820709         1.339543
 H        -0.545337        -3.329221         0.047875
 H         0.885662        -2.566438        -0.501696
