19
Iteration:  3354charge 0 multiplicity 1
 C        -3.131610        -1.762013         0.244937
 C        -1.926614        -0.782924         0.624692
 C        -1.640225         0.459472        -0.358755
 C        -1.025942        -0.524586        -1.364012
 C        -0.473325        -1.143840         0.056422
 C         0.240046        -2.497489         0.158191
 C         0.231159         0.009045         0.633073
 O         1.016711        -0.026668         1.523240
 O        -0.421141         1.197350         0.268027
 H        -3.956048        -1.197421        -0.099773
 H        -2.892880        -2.410866        -0.648339
 H        -3.381339        -2.444262         1.055700
 H        -1.896311        -0.652278         1.690101
 H        -2.404595         1.261612        -0.417333
 H        -1.580408        -1.196605        -1.932645
 H        -0.213956        -0.096551        -1.985447
 H         1.323210        -2.497943        -0.058544
 H         0.124298        -2.937884         1.218436
 H        -0.250271        -3.306804        -0.366481
