19
Iteration:  1982
 C        -3.255504        -1.547974        -0.112389
 C        -1.981370        -0.769638         0.523044
 C        -1.628251         0.374798        -0.470249
 C        -0.711249        -0.782969        -1.202355
 C        -0.462055        -1.248729         0.258620
 C         0.038526        -2.675814         0.483140
 C         0.209251         0.108886         0.754520
 O         1.168065         0.263452         1.509928
 O        -0.479971         1.134508         0.136984
 H        -3.129700        -1.714714        -1.172650
 H        -3.674837        -2.445296         0.346115
 H        -3.929968        -0.775233         0.035605
 H        -2.291935        -0.563992         1.568182
 H        -2.353366         0.987578        -1.122944
 H        -1.366899        -1.470817        -1.731002
 H         0.211539        -0.534265        -1.843632
 H         0.087593        -3.191175        -0.476957
 H         1.098243        -2.624090         0.998170
 H        -0.483330        -3.190494         1.288929
