19
Iteration:  2413charge 0 multiplicity 1
 C        -3.130843        -1.611952         0.194322
 C        -1.902184        -0.721284         0.418338
 C        -1.583329         0.360920        -0.613463
 C        -0.697456        -0.730000        -1.387275
 C        -0.491736        -1.146347         0.133294
 C        -0.089332        -2.604507         0.420878
 C         0.254274         0.097871         0.769355
 O         1.031332         0.251663         1.682926
 O        -0.487322         1.014159         0.165031
 H        -2.941213        -2.157739        -0.777385
 H        -3.295596        -2.500804         0.890481
 H        -4.003894        -0.925109        -0.067665
 H        -1.992223        -0.362570         1.461974
 H        -2.270242         1.155582        -1.031823
 H        -1.209645        -1.445093        -2.030669
 H         0.326489        -0.423322        -1.827641
 H        -0.338334        -3.409176        -0.274140
 H         0.997774        -2.675313         0.580211
 H        -0.606631        -2.899541         1.336715
