19
Iteration:  4242
 C        -3.070588        -1.815229         0.269692
 C        -1.913430        -0.898440         0.651800
 C        -1.695895         0.413634        -0.213707
 C        -1.037584        -0.392316        -1.273782
 C        -0.493250        -1.174282         0.037112
 C         0.143041        -2.570369        -0.156909
 C         0.257460         0.037770         0.730991
 O         1.267038         0.137425         1.400626
 O        -0.590098         1.132521         0.425996
 H        -3.212046        -2.578131         1.053080
 H        -4.012360        -1.313040         0.199635
 H        -2.983992        -2.339889        -0.720447
 H        -1.861724        -0.699324         1.718753
 H        -2.487558         1.164681        -0.446444
 H        -1.790010        -0.577081        -2.037134
 H        -0.170287         0.024681        -1.808849
 H         1.161141        -2.368459        -0.640878
 H         0.334949        -3.174322         0.817445
 H        -0.400237        -3.324172        -0.844223
