19
Iteration:   915charge 0 multiplicity 1
 C        -3.200250        -1.503697         0.741082
 C        -1.761486        -0.729499         0.880460
 C        -1.729837         0.448111        -0.045595
 C        -1.417984        -0.693712        -1.163567
 C        -0.507036        -1.184607        -0.079483
 C         0.144466        -2.605038         0.200495
 C         0.391750         0.017397         0.324651
 O         1.526416        -0.031910         0.714757
 O        -0.519202         1.168617         0.243393
 H        -3.489885        -1.634986         1.798339
 H        -3.943969        -0.778215         0.468010
 H        -3.105121        -2.351555         0.093939
 H        -1.544141        -0.508440         1.948497
 H        -2.650851         1.051915        -0.092278
 H        -2.294910        -1.368596        -1.322241
 H        -0.944049        -0.431479        -2.148452
 H         0.216249        -2.854203         1.280073
 H        -0.680279        -3.296519        -0.246250
 H         0.991208        -2.663814        -0.389062
