19
Iteration:   796
 C        -3.093044        -1.538339         0.931067
 C        -1.757736        -0.717230         0.890085
 C        -1.766279         0.454008        -0.110412
 C        -1.489879        -0.586928        -1.196419
 C        -0.538242        -1.196585         0.012011
 C        -0.008537        -2.656602         0.208989
 C         0.424640         0.063024         0.287098
 O         1.542154        -0.016974         0.792281
 O        -0.462275         1.135323         0.005120
 H        -2.731515        -2.574867         1.169732
 H        -3.655735        -1.335334         1.816335
 H        -3.688084        -1.547683         0.022956
 H        -1.355406        -0.440527         1.868880
 H        -2.539321         1.207327        -0.113308
 H        -2.195260        -1.394476        -1.490734
 H        -0.987351        -0.193076        -2.086173
 H         0.525202        -3.023213        -0.706175
 H         0.625654        -2.797323         1.081581
 H        -0.825464        -3.307982         0.420376
