19
Iteration:  3070
 C        -3.288011        -1.634473         0.320603
 C        -1.995399        -0.767051         0.471344
 C        -1.602997         0.343007        -0.608708
 C        -0.698090        -0.553990        -1.333411
 C        -0.469945        -1.172479         0.046978
 C         0.261900        -2.613550         0.211221
 C         0.139534         0.045900         0.769240
 O         1.066764         0.081473         1.575637
 O        -0.524795         1.141570         0.303492
 H        -3.102720        -2.732243         0.053617
 H        -3.744526        -1.679463         1.354769
 H        -4.145590        -1.200260        -0.347213
 H        -1.989644        -0.204517         1.474394
 H        -2.486713         0.966942        -0.987673
 H        -1.249686        -1.165393        -2.181903
 H         0.267245        -0.189324        -1.741171
 H        -0.359569        -3.442033        -0.169860
 H         1.265632        -2.615411        -0.274341
 H         0.392233        -2.734073         1.277931
