19
Iteration:   895
 C        -3.169545        -1.460626         0.795934
 C        -1.818922        -0.730336         0.976484
 C        -1.791810         0.418901        -0.101248
 C        -1.341696        -0.566738        -1.186148
 C        -0.539581        -1.259571         0.109544
 C         0.107431        -2.621503         0.146105
 C         0.347020        -0.037140         0.325462
 O         1.512962         0.065153         0.624196
 O        -0.462682         1.037646         0.208757
 H        -3.571451        -1.958041         1.685408
 H        -3.932666        -0.718280         0.429136
 H        -3.040795        -2.201526         0.000939
 H        -1.450283        -0.477866         1.984788
 H        -2.595135         1.191274        -0.299381
 H        -2.140248        -1.152580        -1.639232
 H        -0.816302        -0.000170        -1.990457
 H        -0.228647        -3.104647         1.079089
 H        -0.028314        -3.379954        -0.627144
 H         1.184556        -2.424770         0.275121
