19
Iteration:  1317
 C        -3.219314        -1.588637         0.574046
 C        -1.934371        -0.708485         0.645436
 C        -1.708725         0.417269        -0.328304
 C        -0.992175        -0.505112        -1.293398
 C        -0.590234        -1.220592         0.105932
 C         0.107836        -2.544606         0.335722
 C         0.261965        -0.088061         0.521293
 O         1.408051         0.025560         0.873634
 O        -0.536346         1.096281         0.371671
 H        -4.072991        -1.017789         0.078797
 H        -2.981496        -2.464218        -0.081637
 H        -3.351702        -2.044392         1.582231
 H        -1.730866        -0.437457         1.751869
 H        -2.397385         1.246826        -0.530217
 H        -1.616061        -1.155429        -1.855771
 H        -0.134692        -0.216398        -1.961961
 H         0.046806        -2.634423         1.403897
 H        -0.302282        -3.474170        -0.255631
 H         1.182028        -2.555253         0.243723
