19
Iteration:  3192charge 0 multiplicity 1
 C        -3.214813        -1.709977        -0.022654
 C        -2.047807        -0.823734         0.503698
 C        -1.623003         0.366643        -0.378027
 C        -0.635779        -0.476795        -1.255227
 C        -0.474354        -1.226043         0.146434
 C         0.055430        -2.601978         0.380840
 C         0.191575         0.039417         0.765542
 O         1.315377         0.188240         1.142091
 O        -0.679438         1.083126         0.564771
 H        -3.860701        -1.830623         0.850143
 H        -3.970599        -1.264287        -0.787389
 H        -2.907147        -2.682127        -0.442589
 H        -2.126024        -0.491920         1.575625
 H        -2.334194         1.177282        -0.716984
 H        -1.082931        -1.107264        -2.018234
 H         0.218636         0.160793        -1.688275
 H        -0.612429        -3.279474        -0.144142
 H         1.015368        -2.719507        -0.017926
 H         0.155946        -2.774436         1.444816
