19
Iteration:  3471charge 0 multiplicity 1
 C        -3.030291        -1.764085        -0.054650
 C        -1.970981        -0.857059         0.619790
 C        -1.672625         0.458995        -0.232258
 C        -0.942991        -0.486046        -1.319855
 C        -0.527285        -1.169350         0.125572
 C         0.041752        -2.520063         0.330981
 C         0.219951         0.057015         0.739216
 O         1.357915         0.107838         1.106670
 O        -0.589134         1.082567         0.548731
 H        -2.632138        -2.735314        -0.334909
 H        -3.643338        -2.037451         0.802561
 H        -3.794581        -1.395803        -0.767022
 H        -2.052985        -0.690469         1.686500
 H        -2.446398         1.240970        -0.261053
 H        -1.567036        -1.035481        -2.017084
 H        -0.176995        -0.099034        -2.000195
 H         1.043815        -2.563137        -0.073682
 H        -0.105191        -2.916630         1.270312
 H        -0.644474        -3.103824        -0.246107
