19
Iteration:  3632
 C        -3.051189        -1.773334         0.165283
 C        -1.960894        -0.826444         0.533167
 C        -1.663572         0.436265        -0.236319
 C        -0.968344        -0.353647        -1.348794
 C        -0.549257        -1.158245        -0.012101
 C         0.163460        -2.447126         0.209787
 C         0.224576         0.013745         0.654642
 O         1.235993        -0.033001         1.253334
 O        -0.580893         1.099305         0.540101
 H        -3.946838        -1.568081         0.783307
 H        -3.111289        -1.840836        -0.862160
 H        -2.685191        -2.801817         0.387923
 H        -1.932810        -0.845379         1.669850
 H        -2.511618         1.100964        -0.265995
 H        -1.759313        -0.900314        -1.923196
 H        -0.206478        -0.211829        -2.076281
 H         1.249586        -2.136302         0.199567
 H        -0.141168        -2.827006         1.211044
 H        -0.090223        -3.382954        -0.358600
