19
Iteration:  1171
 C        -3.162832        -1.582499         0.703107
 C        -1.975043        -0.660205         0.834654
 C        -1.778314         0.417394        -0.204586
 C        -1.219926        -0.554586        -1.235712
 C        -0.489447        -1.157972         0.086476
 C         0.138406        -2.586299         0.138366
 C         0.303887         0.009577         0.518934
 O         1.434732        -0.057430         0.952081
 O        -0.424028         1.087742         0.128757
 H        -2.989879        -2.508516         0.169226
 H        -3.677359        -1.809788         1.632295
 H        -3.876908        -0.924419         0.181183
 H        -1.721514        -0.300253         1.858881
 H        -2.440092         1.156956        -0.607312
 H        -1.933689        -1.323719        -1.701703
 H        -0.603503        -0.234200        -2.064877
 H         1.273091        -2.572073         0.282716
 H        -0.268851        -3.262904         0.827268
 H        -0.036399        -2.994152        -0.934318
