19
Iteration:   859charge 0 multiplicity 1
 C        -3.189429        -1.652578         0.931380
 C        -1.933155        -0.603043         0.886009
 C        -1.778013         0.433276        -0.258292
 C        -1.209697        -0.627485        -1.169158
 C        -0.532332        -1.132009         0.132569
 C         0.022690        -2.646189         0.151291
 C         0.378432         0.045716         0.353568
 O         1.570570        -0.036683         0.525812
 O        -0.478700         1.162517         0.332669
 H        -2.926007        -2.499347         1.641412
 H        -4.138968        -1.235352         1.174994
 H        -3.292570        -2.130537        -0.065408
 H        -1.832231        -0.225256         1.902934
 H        -2.437110         1.208173        -0.558613
 H        -1.967849        -1.385055        -1.544718
 H        -0.581003        -0.263932        -1.989526
 H        -0.885870        -3.292039         0.188823
 H         0.631571        -2.747463        -0.801301
 H         0.560492        -2.911522         1.006371
