19
Iteration:  1467
 C        -3.191481        -1.636125         0.493622
 C        -1.899841        -0.758376         0.671078
 C        -1.620502         0.477715        -0.470939
 C        -0.931563        -0.691284        -1.259935
 C        -0.536532        -1.205249         0.129850
 C        -0.012541        -2.560553         0.254765
 C         0.254422         0.069520         0.622170
 O         1.313547         0.076350         1.200612
 O        -0.513647         1.131784         0.213672
 H        -2.922630        -2.767991         0.501037
 H        -3.970431        -1.341100         1.161545
 H        -3.648560        -1.486282        -0.533732
 H        -1.928904        -0.471400         1.726798
 H        -2.366238         1.172048        -0.926886
 H        -1.545979        -1.340684        -1.861793
 H         0.069985        -0.367873        -1.813241
 H        -0.787665        -3.316592         0.414926
 H         0.581687        -2.788020        -0.694734
 H         0.667602        -2.626605         1.150426
