19
Iteration:  3980charge 0 multiplicity 1
 C        -3.131419        -1.791097         0.223843
 C        -1.953276        -0.855895         0.598056
 C        -1.730244         0.378006        -0.243395
 C        -0.924640        -0.419916        -1.248399
 C        -0.552503        -1.198917         0.006597
 C         0.116173        -2.587295        -0.138856
 C         0.268959         0.100486         0.741557
 O         1.384215         0.150655         1.285809
 O        -0.623050         1.103505         0.605767
 H        -3.454099        -2.416947         1.095095
 H        -3.936644        -1.175273        -0.186886
 H        -2.761947        -2.496923        -0.574159
 H        -1.765185        -0.634775         1.640624
 H        -2.580626         1.090266        -0.398393
 H        -1.704211        -0.983843        -1.880147
 H        -0.303458         0.246773        -1.923818
 H         1.076171        -2.471774        -0.481461
 H         0.270691        -2.999556         0.853725
 H        -0.447417        -3.385593        -0.624025
