19
Iteration:  1571
 C        -3.088157        -1.763831         0.302852
 C        -2.060210        -0.608680         0.546942
 C        -1.580996         0.509003        -0.366511
 C        -0.875365        -0.560753        -1.313414
 C        -0.612326        -1.171451         0.133769
 C        -0.024929        -2.546878         0.420595
 C         0.234428        -0.055484         0.645684
 O         1.339499         0.084603         1.073706
 O        -0.518587         1.036830         0.375191
 H        -2.765310        -2.607802        -0.240498
 H        -3.404221        -2.192658         1.311748
 H        -3.957995        -1.418574        -0.296089
 H        -2.077523        -0.445205         1.655066
 H        -2.129137         1.363570        -0.852686
 H        -1.340627        -1.264702        -2.079501
 H        -0.009357        -0.115388        -1.781798
 H         1.082304        -2.379718         0.654970
 H        -0.545466        -2.834665         1.417462
 H        -0.208957        -3.329523        -0.371350
