19
Iteration:    37charge 0 multiplicity 1
 C        -2.733345        -1.589494         1.639294
 C        -1.730347        -0.578388         1.113290
 C        -1.785466         0.473495         0.043926
 C        -1.539156        -0.535558        -1.077030
 C        -0.690424        -1.181793        -0.065579
 C        -0.191327        -2.543486        -0.090881
 C         0.352477        -0.056339         0.026863
 O         1.571776        -0.112361         0.039799
 O        -0.466643         1.042101         0.206395
 H        -2.728448        -1.439945         2.771793
 H        -3.760746        -1.538352         1.256410
 H        -2.370017        -2.665367         1.474938
 H        -1.114293        -0.255781         1.926586
 H        -2.519607         1.302437        -0.056619
 H        -2.564545        -1.028381        -1.101599
 H        -1.052388        -0.052504        -1.987437
 H         0.835069        -2.434898        -0.119992
 H        -0.455538        -3.082797         0.835053
 H        -0.442929        -3.208732        -1.028072
