19
Iteration:  1067charge 0 multiplicity 1
 C        -3.238060        -1.525896         0.719784
 C        -2.003535        -0.633045         0.875700
 C        -1.759741         0.461679        -0.248249
 C        -1.185674        -0.596908        -1.267867
 C        -0.562622        -1.248765         0.133793
 C         0.195759        -2.625738         0.173251
 C         0.334904        -0.049379         0.465571
 O         1.522977        -0.004467         0.694266
 O        -0.508313         1.079167         0.336022
 H        -2.938905        -2.586131         0.931874
 H        -3.929191        -1.121592         1.494644
 H        -3.702754        -1.396653        -0.269551
 H        -1.708111        -0.262914         1.853618
 H        -2.387046         1.374838        -0.366283
 H        -1.998345        -1.263786        -1.496725
 H        -0.597847        -0.314761        -2.194915
 H        -0.382217        -3.489847        -0.193231
 H         1.086386        -2.350167        -0.582018
 H         0.645470        -2.833767         1.140296
