19
Iteration:  4692charge 0 multiplicity 1
 C        -3.072623        -1.863228        -0.014259
 C        -1.950931        -0.873685         0.590166
 C        -1.705332         0.481823        -0.132965
 C        -1.049689        -0.289561        -1.239176
 C        -0.497713        -1.125181         0.014586
 C         0.234186        -2.472268         0.144866
 C         0.238746        -0.059269         0.648527
 O         1.227905         0.031940         1.269366
 O        -0.541085         1.084650         0.547065
 H        -3.104957        -2.900206         0.435657
 H        -4.060128        -1.304294         0.334232
 H        -2.997914        -1.852976        -1.139903
 H        -2.030253        -0.970334         1.822445
 H        -2.598706         1.089167        -0.284740
 H        -1.352561        -0.962548        -2.015987
 H        -0.460977         0.397668        -1.808651
 H        -0.640183        -3.163581         0.061801
 H         0.900728        -2.748188        -0.660186
 H         0.683918        -2.693245         1.106650
