19
Iteration:  3245
 C        -3.081510        -1.677713        -0.129707
 C        -2.039128        -0.799548         0.549187
 C        -1.713640         0.496861        -0.303029
 C        -0.997973        -0.570834        -1.279078
 C        -0.473016        -1.172114         0.120746
 C         0.211798        -2.522601         0.453222
 C         0.265830        -0.013639         0.721187
 O         1.326828        -0.010709         1.278063
 O        -0.637837         1.187664         0.436566
 H        -3.923982        -1.938922         0.500120
 H        -3.439332        -1.114323        -1.019068
 H        -2.762867        -2.718627        -0.305075
 H        -2.127281        -0.714396         1.637094
 H        -2.554550         1.267247        -0.458948
 H        -1.533965        -1.355520        -1.770564
 H        -0.163782        -0.393953        -2.024570
 H         0.268195        -3.002383        -0.472341
 H         1.180068        -2.314915         0.816322
 H        -0.348656        -3.087194         1.125037
