19
Iteration:  3718charge 0 multiplicity 1
 C        -3.092187        -1.756190        -0.002542
 C        -2.001376        -0.898718         0.648242
 C        -1.660889         0.415289        -0.222676
 C        -0.977626        -0.409362        -1.191669
 C        -0.473410        -1.178283         0.114185
 C         0.055715        -2.583676         0.157169
 C         0.286004         0.044600         0.708037
 O         1.427468         0.177969         1.137437
 O        -0.672334         1.083699         0.550780
 H        -3.688084        -1.213268        -0.781818
 H        -2.719957        -2.666966        -0.442701
 H        -3.931976        -2.066617         0.659806
 H        -2.059806        -0.845212         1.748107
 H        -2.450467         1.086615        -0.530235
 H        -1.713857        -0.956574        -1.813757
 H        -0.232054         0.134739        -1.643930
 H         0.973682        -2.568805        -0.548999
 H         0.461457        -2.973850         1.152137
 H        -0.664467        -3.375660        -0.283405
