19
Iteration:  1136
 C        -3.006694        -1.698538         0.608628
 C        -1.855141        -0.696430         0.901163
 C        -1.660623         0.530745        -0.183554
 C        -1.263036        -0.603197        -1.248224
 C        -0.598475        -1.178547         0.076487
 C        -0.129192        -2.629717         0.237693
 C         0.315251        -0.009572         0.438305
 O         1.434217         0.098266         0.841641
 O        -0.384626         1.106638         0.224697
 H        -2.663424        -2.587186         0.188033
 H        -3.555740        -1.908343         1.534381
 H        -3.663935        -1.262176        -0.126714
 H        -1.822165        -0.494558         1.973547
 H        -2.409027         1.284512        -0.492311
 H        -2.160755        -1.190096        -1.535113
 H        -0.573242        -0.439597        -2.085097
 H         0.242714        -2.915005         1.257655
 H        -0.850796        -3.301328        -0.183962
 H         0.738466        -2.696973        -0.528926
