19
Iteration:  4207
 C        -3.079352        -1.768745         0.115534
 C        -1.954532        -0.906746         0.662493
 C        -1.726637         0.388663        -0.213625
 C        -0.980166        -0.412950        -1.197339
 C        -0.413099        -1.192156         0.019732
 C         0.098310        -2.542637        -0.024128
 C         0.241264         0.065416         0.708497
 O         1.388960         0.155834         1.120027
 O        -0.675125         1.083247         0.658701
 H        -3.504426        -2.408534         0.928684
 H        -3.940019        -1.182699        -0.269917
 H        -2.654431        -2.482762        -0.690947
 H        -2.137906        -0.830701         1.755273
 H        -2.554390         1.128314        -0.389874
 H        -1.713674        -0.811480        -1.916322
 H        -0.240225         0.155427        -1.666735
 H         1.200425        -2.488880        -0.012435
 H        -0.146738        -3.051357         0.992169
 H        -0.269123        -3.080861        -0.988138
