19
Iteration:   675charge 0 multiplicity 1
 C        -3.025995        -1.643888         0.885319
 C        -1.800326        -0.723679         1.017621
 C        -1.755199         0.508656        -0.015869
 C        -1.426094        -0.638980        -1.115049
 C        -0.648875        -1.168558         0.117430
 C        -0.135054        -2.542585         0.208258
 C         0.441376        -0.018612         0.213360
 O         1.598949         0.004119         0.540387
 O        -0.393588         1.161184         0.057132
 H        -3.142033        -2.184620         1.869654
 H        -3.983455        -1.298260         0.571088
 H        -2.798902        -2.442248         0.164001
 H        -1.609087        -0.359808         2.029046
 H        -2.541355         1.254096        -0.041146
 H        -2.366891        -1.171116        -1.518847
 H        -0.822473        -0.474745        -2.015664
 H        -0.092454        -2.998690         1.250092
 H        -0.841440        -3.173854        -0.403807
 H         0.821910        -2.719420        -0.187721
