19
Iteration:  1014charge 0 multiplicity 1
 C        -3.092356        -1.588362         0.794872
 C        -1.827080        -0.686861         0.856511
 C        -1.733069         0.401759        -0.172267
 C        -1.355685        -0.511289        -1.232558
 C        -0.511369        -1.276044        -0.010517
 C         0.014094        -2.694113         0.148944
 C         0.360534        -0.026987         0.386405
 O         1.456218         0.089263         0.869468
 O        -0.452714         1.106779         0.188928
 H        -3.164041        -2.036693         1.766139
 H        -3.903031        -0.917937         0.523270
 H        -3.061137        -2.397684         0.098143
 H        -1.658999        -0.311812         1.878035
 H        -2.462700         1.266218        -0.226577
 H        -2.240994        -0.846257        -1.766531
 H        -0.604084         0.001008        -1.924897
 H         0.365348        -3.061699        -0.822514
 H         0.963746        -2.720692         0.794183
 H        -0.851742        -3.192955         0.512638
