19
Iteration:   773charge 0 multiplicity 1
 C        -3.008051        -1.444114         1.013144
 C        -1.796685        -0.636489         0.954704
 C        -1.713302         0.435146        -0.233905
 C        -1.364433        -0.715839        -1.140414
 C        -0.681289        -1.216221         0.030798
 C         0.071504        -2.499490         0.034922
 C         0.304713        -0.075050         0.306249
 O         1.438715         0.019237         0.710459
 O        -0.423857         1.029800         0.166489
 H        -2.935963        -2.537558         1.323475
 H        -3.666050        -1.053247         1.749326
 H        -3.506724        -1.353873         0.041857
 H        -1.357190        -0.211383         1.862776
 H        -2.497716         1.108225        -0.453902
 H        -2.284912        -1.374520        -1.402710
 H        -0.759257        -0.598275        -2.045897
 H         1.077143        -2.530384        -0.486301
 H         0.152902        -2.807837         1.111227
 H        -0.512351        -3.264960        -0.300764
