19
Iteration:  3979
 C        -3.141135        -1.793534         0.210994
 C        -1.956397        -0.859770         0.600204
 C        -1.728205         0.382477        -0.231768
 C        -0.910698        -0.417484        -1.255175
 C        -0.552305        -1.203647         0.009606
 C         0.108670        -2.594439        -0.128665
 C         0.269273         0.109881         0.739785
 O         1.383300         0.157720         1.275496
 O        -0.621944         1.106317         0.609687
 H        -3.431534        -2.394245         1.098194
 H        -3.943176        -1.192166        -0.161976
 H        -2.777197        -2.501295        -0.571969
 H        -1.781307        -0.688224         1.653944
 H        -2.570513         1.089761        -0.380579
 H        -1.717174        -1.001657        -1.862511
 H        -0.281216         0.239611        -1.914438
 H         1.086584        -2.480449        -0.512998
 H         0.303396        -3.048471         0.868866
 H        -0.451779        -3.384805        -0.660987
