19
Iteration:  1038
 C        -3.146096        -1.558011         0.656976
 C        -1.860398        -0.752541         0.933080
 C        -1.769765         0.438706        -0.090624
 C        -1.229225        -0.617527        -1.143757
 C        -0.605379        -1.193079         0.110228
 C         0.085084        -2.520537         0.109470
 C         0.324186        -0.008691         0.403779
 O         1.475560        -0.020704         0.800056
 O        -0.434518         1.097333         0.111383
 H        -3.230785        -2.382528         1.308831
 H        -3.806440        -0.698652         0.870747
 H        -3.399839        -1.864378        -0.316002
 H        -1.702176        -0.648538         2.033168
 H        -2.490717         1.314029        -0.108417
 H        -2.021831        -1.307994        -1.386192
 H        -0.659384        -0.330852        -2.061623
 H        -0.035856        -3.094452        -0.817209
 H         1.082838        -2.257745         0.164913
 H        -0.274141        -3.080230         1.000686
