19
Iteration:    41
 C        -2.721427        -1.596367         1.624111
 C        -1.700116        -0.592233         1.132912
 C        -1.825502         0.491886         0.075446
 C        -1.549967        -0.531889        -1.111787
 C        -0.675481        -1.164823        -0.053347
 C        -0.177369        -2.541268        -0.089408
 C         0.365876        -0.073555         0.035240
 O         1.552003        -0.115454         0.050558
 O        -0.466203         1.039093         0.167727
 H        -2.778986        -1.476709         2.710511
 H        -3.806950        -1.477987         1.306109
 H        -2.524019        -2.667177         1.494944
 H        -1.076446        -0.254767         2.015419
 H        -2.527180         1.318331        -0.011213
 H        -2.511068        -1.036942        -1.201587
 H        -0.961464        -0.049056        -1.903534
 H         1.003492        -2.544614        -0.250827
 H        -0.482309        -3.040804         0.850971
 H        -0.602053        -3.117252        -0.874202
