19
Iteration:  3010charge 0 multiplicity 1
 C        -3.068799        -1.765330        -0.054722
 C        -1.963337        -0.742889         0.521142
 C        -1.623515         0.479742        -0.369628
 C        -0.852560        -0.568707        -1.304439
 C        -0.485063        -1.191463         0.166889
 C        -0.008040        -2.604568         0.509487
 C         0.271714         0.044696         0.658156
 O         1.245377         0.156658         1.365035
 O        -0.614150         1.129795         0.331005
 H        -3.074085        -1.822417        -1.160495
 H        -2.773911        -2.774754         0.343741
 H        -4.078152        -1.509380         0.297472
 H        -2.165856        -0.500162         1.543150
 H        -2.406320         1.132711        -0.763731
 H        -1.507445        -1.135914        -1.857257
 H         0.124614        -0.403680        -1.792099
 H        -0.410490        -3.227363        -0.334919
 H         1.031865        -2.866721         0.587963
 H        -0.397717        -2.943698         1.526493
