19
Iteration:   475
 C        -2.998642        -1.475174         1.234004
 C        -1.754991        -0.575952         1.002066
 C        -1.727852         0.443791        -0.152992
 C        -1.403747        -0.722379        -1.131737
 C        -0.533132        -1.239809         0.014854
 C        -0.052237        -2.618457         0.110604
 C         0.357603        -0.015678         0.182496
 O         1.536646        -0.002207         0.449680
 O        -0.523779         1.102573         0.144571
 H        -2.716880        -2.411769         1.675562
 H        -3.822306        -0.989079         1.866525
 H        -3.487025        -1.744989         0.287285
 H        -1.476954        -0.076699         1.957606
 H        -2.552790         1.095228        -0.390464
 H        -2.357720        -1.250030        -1.167389
 H        -0.855726        -0.411076        -2.091330
 H         0.838696        -2.693984         0.724248
 H        -0.874092        -3.301792         0.468973
 H         0.157999        -3.039539        -0.945488
