19
Iteration:   452
 C        -3.027027        -1.450418         1.119329
 C        -1.700113        -0.685505         1.069798
 C        -1.798365         0.429518        -0.032582
 C        -1.550993        -0.699693        -1.122718
 C        -0.648933        -1.252164         0.118685
 C         0.000907        -2.610515         0.112066
 C         0.384912        -0.001854         0.258801
 O         1.554876         0.076891         0.409866
 O        -0.375341         1.064174        -0.002955
 H        -3.089385        -2.108993         1.978069
 H        -3.858138        -0.673137         1.214887
 H        -3.312983        -2.052049         0.246060
 H        -1.450673        -0.370958         2.108749
 H        -2.541955         1.195406        -0.044885
 H        -2.420857        -1.390093        -1.233500
 H        -0.917988        -0.410098        -2.009342
 H         0.479714        -2.919253         0.995540
 H        -0.729148        -3.347179        -0.243061
 H         0.749398        -2.595324        -0.800132
