19
Iteration:  2391charge 0 multiplicity 1
 C        -3.164581        -1.674584         0.331237
 C        -2.018515        -0.641293         0.333647
 C        -1.402368         0.426219        -0.647622
 C        -0.553743        -0.650710        -1.341586
 C        -0.422375        -1.212924         0.103734
 C        -0.083439        -2.746101         0.387856
 C         0.134568         0.012889         0.806490
 O         0.969906         0.280926         1.630417
 O        -0.507397         1.126959         0.174508
 H        -3.108582        -2.477256        -0.444810
 H        -2.975819        -2.265980         1.306303
 H        -4.175991        -1.157386         0.234568
 H        -2.147637        -0.348024         1.374393
 H        -2.136529         0.949304        -1.289371
 H        -1.143596        -1.307170        -2.004086
 H         0.279325        -0.212816        -2.003356
 H        -0.751720        -3.383887        -0.228250
 H         0.949852        -3.064270         0.145376
 H        -0.380049        -3.067161         1.395876
