19
Iteration:  1237charge 0 multiplicity 1
 C        -3.202241        -1.569359         0.714774
 C        -1.946396        -0.686320         0.758564
 C        -1.732266         0.408425        -0.272855
 C        -1.067672        -0.632993        -1.247872
 C        -0.533497        -1.205996         0.043860
 C         0.104594        -2.615575         0.148940
 C         0.335932         0.005542         0.489586
 O         1.437694         0.037676         0.998191
 O        -0.518026         1.104623         0.212876
 H        -3.591024        -1.674824        -0.294295
 H        -3.143020        -2.521722         1.182732
 H        -3.916467        -0.887893         1.190147
 H        -1.858964        -0.354969         1.826789
 H        -2.414799         1.240875        -0.459811
 H        -1.869429        -1.158918        -1.851584
 H        -0.437092        -0.114872        -1.988703
 H        -0.019480        -3.041276        -0.891875
 H         1.165989        -2.629031         0.379280
 H        -0.434551        -3.243074         0.941081
