19
Iteration:  2775charge 0 multiplicity 1
 C        -3.170100        -1.574854        -0.125300
 C        -2.030625        -0.786459         0.548868
 C        -1.549984         0.331241        -0.432941
 C        -0.682639        -0.717258        -1.207561
 C        -0.510794        -1.285020         0.287377
 C         0.037989        -2.584208         0.533174
 C         0.205455         0.012779         0.768859
 O         1.210778         0.357885         1.354443
 O        -0.607464         1.069345         0.194438
 H        -2.793190        -2.520513        -0.570965
 H        -3.950496        -1.846248         0.531330
 H        -3.652369        -0.999404        -0.943748
 H        -2.421566        -0.270380         1.439713
 H        -2.165953         0.941259        -1.011138
 H        -1.260385        -1.436002        -1.802728
 H         0.241174        -0.379834        -1.634092
 H        -0.629489        -3.224617        -0.030898
 H         1.161340        -2.778235         0.193509
 H        -0.087879        -2.730306         1.628781
