19
Iteration:  1159
 C        -3.099720        -1.604967         0.592446
 C        -1.938005        -0.663092         0.881027
 C        -1.767562         0.478074        -0.240402
 C        -1.279434        -0.629725        -1.158612
 C        -0.577148        -1.158568         0.126048
 C         0.022529        -2.548645         0.121875
 C         0.395970        -0.019286         0.451224
 O         1.497867        -0.012383         0.972350
 O        -0.412834         1.103903         0.131812
 H        -2.659377        -2.484239         0.193959
 H        -3.456348        -1.932360         1.568020
 H        -3.926022        -1.393694        -0.063226
 H        -1.980709        -0.425168         1.951851
 H        -2.506571         1.253123        -0.438491
 H        -2.111682        -1.376514        -1.336770
 H        -0.728276        -0.348162        -2.039109
 H         1.005248        -2.507005         0.687386
 H        -0.605147        -3.283022         0.532887
 H         0.230111        -2.870827        -0.977478
