19
Iteration:  2848charge 0 multiplicity 1
 C        -3.074862        -1.749540         0.305326
 C        -2.021240        -0.608066         0.419507
 C        -1.499284         0.424441        -0.686442
 C        -0.734711        -0.664765        -1.394558
 C        -0.500311        -1.179441         0.143869
 C         0.130160        -2.482267         0.504664
 C         0.121026         0.055542         0.702780
 O         0.911245        -0.049501         1.672803
 O        -0.443969         1.179363         0.079903
 H        -2.894168        -2.477796         1.153562
 H        -4.118704        -1.429252         0.374016
 H        -3.016856        -2.291706        -0.641361
 H        -2.151789        -0.241148         1.461611
 H        -2.375279         0.910485        -1.039892
 H        -1.441933        -1.196370        -2.015624
 H         0.269112        -0.274441        -1.890096
 H        -0.477288        -3.204085         0.024353
 H         1.134178        -2.444375         0.064340
 H         0.225779        -2.638012         1.569735
