19
Iteration:  3148
 C        -3.022628        -1.771482         0.090456
 C        -2.016188        -0.757075         0.537856
 C        -1.629067         0.400241        -0.374438
 C        -0.860176        -0.565499        -1.291806
 C        -0.534481        -1.142755         0.125793
 C         0.023931        -2.559661         0.245184
 C         0.237686        -0.002223         0.732423
 O         1.151636         0.172310         1.482210
 O        -0.490752         1.089675         0.326392
 H        -3.399998        -2.446627         0.878973
 H        -3.962532        -1.312809        -0.416465
 H        -2.510720        -2.307367        -0.774160
 H        -2.140763        -0.390836         1.614975
 H        -2.231016         1.153059        -1.011598
 H        -1.461428        -1.057063        -2.081595
 H         0.054982        -0.021525        -1.705718
 H        -0.880178        -3.200173         0.320888
 H         0.583916        -2.854490        -0.606965
 H         0.669375        -2.630123         1.117095
