19
Iteration:  1874charge 0 multiplicity 1
 C        -3.090787        -1.627169         0.151366
 C        -1.979244        -0.638012         0.476177
 C        -1.504636         0.433561        -0.566437
 C        -0.814211        -0.728109        -1.279091
 C        -0.550741        -1.260973         0.245071
 C        -0.068248        -2.756442         0.384947
 C         0.201694         0.080043         0.753457
 O         1.107831         0.274697         1.514365
 O        -0.429439         1.135226         0.165472
 H        -2.802212        -2.147052        -0.789634
 H        -3.146208        -2.459891         0.892771
 H        -4.057614        -1.199376        -0.001532
 H        -2.201502        -0.102681         1.434315
 H        -2.245496         1.146566        -1.045192
 H        -1.375745        -1.505520        -1.825634
 H         0.098860        -0.622664        -1.956765
 H         1.025396        -2.762091         0.550146
 H        -0.468287        -3.195162         1.402794
 H        -0.320899        -3.392871        -0.473783
