19
Iteration:  3406charge 0 multiplicity 1
 C        -3.171093        -1.752287         0.139117
 C        -2.023263        -0.781190         0.567117
 C        -1.614386         0.437623        -0.292252
 C        -0.814362        -0.483726        -1.258812
 C        -0.503381        -1.173644         0.092164
 C         0.106708        -2.561821         0.282585
 C         0.245704         0.025720         0.684003
 O         1.337473         0.094658         1.183336
 O        -0.684480         1.110054         0.476635
 H        -3.540000        -1.516511        -0.852447
 H        -2.864577        -2.785806         0.062674
 H        -4.069503        -1.597993         0.749965
 H        -1.999536        -0.716572         1.626253
 H        -2.335445         1.164604        -0.720686
 H        -1.561081        -0.881451        -1.954184
 H         0.001717        -0.185322        -1.927183
 H         1.196683        -2.506218         0.546270
 H        -0.388426        -3.261429         1.061165
 H         0.087129        -3.172504        -0.666096
