19
Iteration:  4837charge 0 multiplicity 1
 C        -3.127262        -1.815460         0.062258
 C        -2.003588        -0.865299         0.561518
 C        -1.782021         0.479578        -0.203518
 C        -0.939060        -0.312339        -1.176602
 C        -0.504569        -1.121558         0.016561
 C         0.192581        -2.500134         0.091319
 C         0.234565         0.029798         0.746252
 O         1.368323         0.036021         1.212222
 O        -0.625516         1.032995         0.534070
 H        -2.914292        -2.782363         0.637870
 H        -4.216962        -1.523323         0.333093
 H        -2.979434        -2.178997        -1.047220
 H        -2.106602        -0.919216         1.743194
 H        -2.488884         1.310137        -0.355212
 H        -1.447166        -0.949544        -1.898247
 H        -0.028947         0.102322        -1.625594
 H        -0.223451        -3.239990        -0.578541
 H         1.192272        -2.336431        -0.335742
 H         0.165130        -2.979371         1.065790
