19
Iteration:   947charge 0 multiplicity 1
 C        -3.104548        -1.646908         0.877398
 C        -1.901414        -0.572394         0.914782
 C        -1.738603         0.497272        -0.113081
 C        -1.274234        -0.573536        -1.251199
 C        -0.622909        -1.221395         0.034950
 C         0.053538        -2.551570         0.094278
 C         0.347137        -0.099034         0.416759
 O         1.506354         0.024004         0.766528
 O        -0.459402         1.046506         0.144547
 H        -3.304160        -1.914668         1.929980
 H        -3.976163        -1.307782         0.355738
 H        -2.798108        -2.610664         0.483990
 H        -1.556686        -0.197979         1.870156
 H        -2.566657         1.173517        -0.262383
 H        -2.067232        -1.025964        -1.885879
 H        -0.524485        -0.079524        -1.893231
 H         1.049677        -2.587241         0.562347
 H        -0.571874        -3.416370         0.509917
 H         0.153524        -2.813220        -0.913226
