19
Iteration:  1286
 C        -3.115515        -1.702382         0.498106
 C        -1.886377        -0.677035         0.715411
 C        -1.787439         0.400237        -0.267782
 C        -1.226959        -0.529251        -1.289363
 C        -0.541899        -1.160510         0.116125
 C        -0.063941        -2.590332         0.327598
 C         0.399134         0.013461         0.450295
 O         1.468552         0.033205         0.989230
 O        -0.413199         1.152737         0.280640
 H        -3.785902        -1.474128        -0.398937
 H        -2.592540        -2.700540         0.179325
 H        -3.665098        -1.844888         1.474344
 H        -1.934845        -0.418670         1.829573
 H        -2.427161         1.264432        -0.432570
 H        -1.838424        -1.364153        -1.673842
 H        -0.464125        -0.295288        -2.059451
 H        -0.891189        -3.171946         0.746916
 H         0.366753        -3.087289        -0.617619
 H         0.722089        -2.587305         1.060802
