19
Iteration:   483charge 0 multiplicity 1
 C        -2.990056        -1.505458         1.283950
 C        -1.775574        -0.532091         1.013760
 C        -1.792275         0.372371        -0.203423
 C        -1.409334        -0.610998        -1.248605
 C        -0.571910        -1.187078        -0.002093
 C        -0.001884        -2.655352         0.157848
 C         0.371442        -0.000335         0.241967
 O         1.580342        -0.020590         0.458931
 O        -0.515065         1.070070         0.145599
 H        -2.706241        -2.531564         1.614546
 H        -3.676080        -1.127977         2.074699
 H        -3.631950        -1.650659         0.398691
 H        -1.549621         0.015911         1.952954
 H        -2.531372         1.120777        -0.414338
 H        -2.331936        -1.260989        -1.423855
 H        -0.872902        -0.387793        -2.174360
 H         0.909707        -2.926846         0.599916
 H        -0.790683        -3.149191         0.685368
 H        -0.123293        -3.127154        -0.901911
