19
Iteration:   195charge 0 multiplicity 1
 C        -2.819221        -1.562264         1.252211
 C        -1.581725        -0.719718         1.178435
 C        -1.781335         0.524042         0.120310
 C        -1.682195        -0.548710        -1.013692
 C        -0.721972        -1.226035         0.029126
 C        -0.154060        -2.625021         0.056749
 C         0.398240        -0.072175         0.099485
 O         1.620897         0.002961         0.199861
 O        -0.432307         1.118587        -0.004339
 H        -2.638419        -2.644918         1.169547
 H        -3.417559        -1.403959         2.230173
 H        -3.570159        -1.283061         0.497081
 H        -1.046228        -0.563328         2.158569
 H        -2.553274         1.313158         0.202374
 H        -2.539172        -1.151609        -1.256065
 H        -1.294699        -0.148315        -1.983455
 H        -0.252881        -3.155713         1.088185
 H        -0.739301        -3.196808        -0.687714
 H         0.847592        -2.612933        -0.225061
