19
Iteration:  1053charge 0 multiplicity 1
 C        -3.218469        -1.480866         0.696541
 C        -1.904485        -0.685581         0.864901
 C        -1.727333         0.395902        -0.167671
 C        -1.313269        -0.656344        -1.145650
 C        -0.575830        -1.171519         0.145029
 C         0.176634        -2.483675         0.119154
 C         0.349143        -0.018178         0.426277
 O         1.516090        -0.043747         0.746647
 O        -0.457406         1.072924         0.240966
 H        -3.135245        -2.582347         1.069822
 H        -4.189590        -1.253355         1.152214
 H        -3.404664        -1.620005        -0.432095
 H        -1.892852        -0.317493         1.928629
 H        -2.498429         1.025237        -0.505128
 H        -2.027326        -1.317485        -1.724787
 H        -0.630170        -0.244772        -1.854286
 H        -0.369554        -3.149413        -0.562758
 H         1.264176        -2.460771        -0.207876
 H         0.208469        -3.005397         1.099463
