19
Iteration:  2228
 C        -3.084926        -1.750961        -0.005508
 C        -2.055845        -0.679672         0.442902
 C        -1.619110         0.394867        -0.578237
 C        -0.648037        -0.685074        -1.290024
 C        -0.467508        -1.115173         0.206131
 C        -0.190268        -2.565045         0.626766
 C         0.230110         0.044350         0.796810
 O         1.272993         0.138913         1.411483
 O        -0.558649         1.140862         0.221721
 H        -2.762811        -2.352363        -0.848384
 H        -3.159464        -2.460602         0.747241
 H        -4.084699        -1.382200        -0.179343
 H        -2.320303        -0.177058         1.393523
 H        -2.330918         1.113015        -1.028813
 H        -0.792953        -1.551155        -2.013095
 H         0.225391        -0.112160        -1.680423
 H        -0.500540        -3.356240        -0.143386
 H         0.891182        -2.717820         0.814827
 H        -0.878808        -2.851205         1.468179
