19
Iteration:  3322charge 0 multiplicity 1
 C        -3.062081        -1.715729         0.368798
 C        -1.927643        -0.693194         0.531968
 C        -1.593726         0.448825        -0.477143
 C        -0.836032        -0.557993        -1.436988
 C        -0.455780        -1.172281         0.071914
 C         0.092498        -2.556218         0.020722
 C         0.199767        -0.030355         0.792491
 O         1.074642         0.121060         1.591834
 O        -0.601213         1.049415         0.324488
 H        -3.904137        -1.252363         0.832819
 H        -3.296858        -1.939927        -0.732819
 H        -2.877721        -2.669864         0.859355
 H        -1.811928        -0.439688         1.579341
 H        -2.399162         1.159770        -0.774861
 H        -1.338686        -1.272129        -1.947053
 H         0.039333        -0.061981        -1.879207
 H         0.773265        -2.744186        -0.794433
 H         0.656430        -2.661164         0.939952
 H        -0.740177        -3.181765        -0.149327
