19
Iteration:  4395
 C        -3.124860        -1.853594        -0.030731
 C        -1.994452        -0.908211         0.564649
 C        -1.722929         0.473653        -0.135818
 C        -0.863686        -0.235492        -1.196732
 C        -0.489435        -1.156203         0.039134
 C         0.115816        -2.468104         0.165198
 C         0.231242        -0.054613         0.713818
 O         1.402204         0.106459         1.080327
 O        -0.701631         1.005813         0.653877
 H        -3.100779        -2.784642         0.622013
 H        -4.120292        -1.404288         0.149095
 H        -2.929213        -2.308253        -1.042489
 H        -1.930223        -0.762016         1.645859
 H        -2.426676         1.193447        -0.520686
 H        -1.500417        -0.878615        -1.752088
 H        -0.148838         0.372184        -1.723669
 H        -0.384913        -3.273208        -0.380602
 H         1.062643        -2.408443        -0.350935
 H         0.134955        -2.771887         1.225830
