19
Iteration:  4690
 C        -3.083866        -1.868057        -0.030848
 C        -1.959134        -0.887724         0.611234
 C        -1.678810         0.468717        -0.135713
 C        -1.050958        -0.279599        -1.226849
 C        -0.501877        -1.130624         0.012614
 C         0.229418        -2.475378         0.146457
 C         0.236288        -0.046396         0.626376
 O         1.243717         0.033905         1.259750
 O        -0.549517         1.087639         0.557311
 H        -3.163712        -2.894826         0.416619
 H        -4.031609        -1.335479         0.271733
 H        -3.009522        -1.851156        -1.105014
 H        -2.156429        -0.897892         1.792656
 H        -2.555700         1.110646        -0.262551
 H        -1.389785        -0.953154        -1.995777
 H        -0.456112         0.431677        -1.807621
 H        -0.640903        -3.179937         0.077605
 H         0.969388        -2.754223        -0.609847
 H         0.722698        -2.651990         1.164513
