19
Iteration:   939
 C        -3.072773        -1.593626         0.855100
 C        -1.880097        -0.722143         0.922848
 C        -1.710973         0.433522        -0.161837
 C        -1.344882        -0.555006        -1.240415
 C        -0.640846        -1.189739         0.053547
 C         0.063975        -2.535124         0.096909
 C         0.336050        -0.041463         0.392169
 O         1.487916         0.024064         0.751172
 O        -0.415862         1.040521         0.188193
 H        -3.408887        -1.732538         1.866394
 H        -3.896547        -1.016225         0.353903
 H        -2.838669        -2.518061         0.348645
 H        -1.717318        -0.295067         1.942581
 H        -2.475844         1.287086        -0.254922
 H        -2.144301        -1.186718        -1.597095
 H        -0.641637        -0.262405        -2.073228
 H         0.856210        -2.466650         0.860001
 H        -0.611584        -3.282139         0.458512
 H         0.419399        -2.783977        -0.934334
