19
Iteration:   860charge 0 multiplicity 1
 C        -3.192698        -1.649626         0.927924
 C        -1.940108        -0.608920         0.883395
 C        -1.772472         0.438035        -0.248253
 C        -1.205778        -0.632588        -1.176918
 C        -0.537366        -1.136730         0.145326
 C         0.026697        -2.643918         0.144291
 C         0.375604         0.044328         0.355355
 O         1.569512        -0.032023         0.524857
 O        -0.475146         1.157897         0.326983
 H        -2.936999        -2.474419         1.670351
 H        -4.149470        -1.225426         1.186651
 H        -3.257169        -2.130075        -0.061734
 H        -1.834659        -0.255687         1.912769
 H        -2.447007         1.223541        -0.538623
 H        -1.977576        -1.372684        -1.564801
 H        -0.574637        -0.254532        -1.997090
 H        -0.888824        -3.270748         0.233032
 H         0.629416        -2.765111        -0.821482
 H         0.582796        -2.873148         0.996606
