19
Iteration:  3967
 C        -3.179605        -1.796079         0.125057
 C        -1.961359        -0.945944         0.603554
 C        -1.679514         0.460191        -0.097157
 C        -0.887401        -0.381590        -1.252913
 C        -0.466669        -1.210896         0.063690
 C         0.091083        -2.642502        -0.038118
 C         0.262785         0.056104         0.712897
 O         1.366881         0.241940         1.159917
 O        -0.641781         1.120646         0.618818
 H        -3.440360        -2.405235         1.008456
 H        -4.096571        -1.305375        -0.070376
 H        -3.076870        -2.539784        -0.680527
 H        -2.162343        -0.903930         1.668588
 H        -2.411744         1.221492        -0.360898
 H        -1.523763        -1.010099        -2.025784
 H         0.006537        -0.049320        -1.814909
 H         0.971297        -2.542443        -0.675078
 H         0.303978        -3.269208         0.881538
 H        -0.632419        -3.118987        -0.735675
