19
Iteration:  4229charge 0 multiplicity 1
 C        -3.095134        -1.778151         0.201284
 C        -1.909377        -0.895832         0.651523
 C        -1.736304         0.420791        -0.164514
 C        -0.976380        -0.392657        -1.297421
 C        -0.475498        -1.180961         0.076941
 C         0.104891        -2.531963        -0.116684
 C         0.304977        -0.019543         0.712924
 O         1.348873         0.178021         1.333258
 O        -0.669522         1.095247         0.469869
 H        -3.352322        -2.476541         1.044233
 H        -4.000204        -1.173034        -0.019696
 H        -2.769333        -2.414204        -0.710561
 H        -1.970630        -0.832682         1.756436
 H        -2.633914         1.110617        -0.280213
 H        -1.382000        -1.301421        -1.767613
 H        -0.389614         0.227465        -1.926101
 H         1.156930        -2.489847        -0.469668
 H         0.069605        -3.217616         0.825206
 H        -0.515675        -2.919750        -1.012808
