19
Iteration:  2306charge 0 multiplicity 1
 C        -3.154764        -1.528085        -0.147784
 C        -2.025943        -0.818337         0.488709
 C        -1.620437         0.382025        -0.479676
 C        -0.773592        -0.719971        -1.307977
 C        -0.522117        -1.184974         0.133441
 C         0.086625        -2.498315         0.715952
 C         0.200782         0.040644         0.769577
 O         1.158795         0.161028         1.485703
 O        -0.470090         1.019370         0.164133
 H        -3.033772        -1.680613        -1.185673
 H        -3.517694        -2.357572         0.326671
 H        -4.038104        -0.888354        -0.102117
 H        -2.130590        -0.670568         1.577986
 H        -2.468713         1.105864        -0.787674
 H        -1.349105        -1.389456        -1.958575
 H         0.091052        -0.295710        -1.923440
 H        -0.712740        -3.233764         0.717416
 H         1.043696        -2.949832         0.213708
 H         0.497583        -2.264177         1.704945
