19
Iteration:   166
 C        -2.830926        -1.534393         1.411955
 C        -1.746895        -0.650070         1.012313
 C        -1.847266         0.571598         0.047516
 C        -1.563431        -0.550507        -1.091945
 C        -0.643052        -1.179555        -0.050155
 C        -0.084734        -2.609691         0.055277
 C         0.376262        -0.079261         0.048029
 O         1.594321        -0.087700         0.060442
 O        -0.428714         1.066939         0.307415
 H        -2.455244        -2.413320         1.968239
 H        -3.376353        -1.083558         2.176536
 H        -3.597124        -1.988197         0.794294
 H        -1.291320        -0.369169         1.959017
 H        -2.613358         1.417099         0.051017
 H        -2.377073        -1.267850        -1.212712
 H        -1.275997        -0.335800        -2.089182
 H        -0.733443        -3.180657         0.661424
 H        -0.153298        -3.137524        -0.892096
 H         1.007392        -2.588979         0.492851
