19
Iteration:   827charge 0 multiplicity 1
 C        -3.013489        -1.613576         0.933259
 C        -1.780070        -0.673642         0.901371
 C        -1.673739         0.487275        -0.140900
 C        -1.324585        -0.569824        -1.273257
 C        -0.631151        -1.187676         0.047087
 C        -0.105195        -2.581893         0.249745
 C         0.307722        -0.030631         0.346052
 O         1.468317         0.086701         0.621746
 O        -0.439321         1.038422         0.169348
 H        -2.539648        -2.640489         1.083353
 H        -3.792335        -1.475112         1.657249
 H        -3.535266        -1.783478        -0.022779
 H        -1.400198        -0.458540         1.922227
 H        -2.375472         1.276478        -0.139965
 H        -2.019608        -1.351126        -1.728440
 H        -0.580478        -0.156497        -1.963192
 H        -0.393758        -3.257740        -0.641368
 H         1.024441        -2.769995         0.335542
 H        -0.509418        -3.001671         1.093149
