19
Iteration:   230charge 0 multiplicity 1
 C        -2.969060        -1.495487         1.380067
 C        -1.659855        -0.695505         1.210113
 C        -1.743490         0.473212        -0.015436
 C        -1.636158        -0.668889        -1.044124
 C        -0.645274        -1.208201         0.038166
 C        -0.094176        -2.622843        -0.093476
 C         0.410772        -0.057565         0.139704
 O         1.610741         0.023659         0.264695
 O        -0.418201         1.150744         0.050246
 H        -2.871505        -2.520111         0.937718
 H        -3.260739        -1.613481         2.403024
 H        -3.752426        -0.953633         0.805671
 H        -1.145716        -0.460707         2.170957
 H        -2.582415         1.249120        -0.102171
 H        -2.556721        -1.238541        -1.088122
 H        -1.235456        -0.537847        -2.009871
 H         0.684095        -2.939758         0.611487
 H        -0.882077        -3.399491         0.033386
 H         0.276242        -2.731075        -1.181742
