19
Iteration:   508charge 0 multiplicity 1
 C        -2.971258        -1.593451         1.350979
 C        -1.778957        -0.663380         0.828520
 C        -1.763403         0.468334        -0.169185
 C        -1.306989        -0.541635        -1.206351
 C        -0.731023        -1.247033         0.017070
 C        -0.089737        -2.552953         0.211566
 C         0.353866        -0.055083         0.230431
 O         1.501832         0.018281         0.504250
 O        -0.415804         1.062638         0.039411
 H        -2.642273        -2.609984         1.418812
 H        -3.210484        -1.300897         2.436450
 H        -3.944038        -1.656880         0.841928
 H        -1.494069        -0.278326         1.816359
 H        -2.535411         1.224919        -0.306038
 H        -2.137134        -1.123195        -1.652182
 H        -0.566675        -0.238901        -2.087525
 H         0.979552        -2.528108        -0.050471
 H        -0.151365        -2.952518         1.270209
 H        -0.526821        -3.271064        -0.543466
