19
Iteration:  3567
 C        -3.145978        -1.742766         0.378446
 C        -1.900232        -0.847750         0.597285
 C        -1.638087         0.466054        -0.367371
 C        -0.856519        -0.406391        -1.265529
 C        -0.430385        -1.179507        -0.006351
 C         0.175354        -2.615154        -0.197973
 C         0.214439        -0.012059         0.762865
 O         1.098147         0.164020         1.582028
 O        -0.593175         1.058085         0.354723
 H        -3.691223        -2.034500         1.339046
 H        -3.902108        -1.145097        -0.163608
 H        -2.966436        -2.705663        -0.229758
 H        -1.815620        -0.498271         1.687232
 H        -2.292305         1.166087        -0.874269
 H        -1.668232        -1.009310        -1.882625
 H        -0.001171        -0.135892        -1.958871
 H         0.820140        -2.586360        -1.135700
 H         0.743757        -2.845784         0.694468
 H        -0.646051        -3.365590        -0.219249
