19
Iteration:  3593charge 0 multiplicity 1
 C        -3.050128        -1.796220         0.271561
 C        -1.911626        -0.775030         0.616273
 C        -1.714255         0.389984        -0.241091
 C        -0.916531        -0.445924        -1.334215
 C        -0.469431        -1.137568         0.001106
 C         0.085880        -2.525056        -0.046634
 C         0.234627         0.047706         0.711485
 O         1.119957         0.030265         1.541393
 O        -0.507606         1.122377         0.331375
 H        -3.740292        -2.059442         1.074075
 H        -3.850743        -1.526979        -0.505682
 H        -2.489389        -2.698083         0.053232
 H        -1.813615        -0.494263         1.642104
 H        -2.514040         1.092893        -0.546199
 H        -1.670297        -1.013603        -1.822857
 H        -0.120122        -0.025583        -2.072372
 H         0.966206        -2.399400        -0.712236
 H         0.537396        -2.888228         0.863152
 H        -0.521589        -3.182648        -0.619835
