19
Iteration:  3666charge 0 multiplicity 1
 C        -3.184662        -1.731924         0.071916
 C        -2.043891        -0.892833         0.536355
 C        -1.771604         0.390767        -0.241877
 C        -0.840094        -0.342599        -1.245888
 C        -0.535151        -1.187244         0.154802
 C         0.169699        -2.606828         0.192129
 C         0.250365         0.034580         0.740593
 O         1.428197         0.125765         1.034832
 O        -0.634130         1.087753         0.602205
 H        -4.118736        -1.241958        -0.160821
 H        -3.025736        -2.275754        -0.843961
 H        -3.342105        -2.440617         0.895182
 H        -2.239066        -0.674926         1.631558
 H        -2.634998         1.059807        -0.244115
 H        -1.327577        -1.009355        -1.974354
 H         0.019568         0.225838        -1.638456
 H         1.285208        -2.474512         0.190912
 H        -0.039040        -2.996884         1.160089
 H        -0.129911        -3.213501        -0.656084
