19
Iteration:     1
 C        -2.805686        -1.512720         1.545613
 C        -1.597503        -0.668874         1.167138
 C        -1.769268         0.485970         0.147201
 C        -1.689427        -0.543910        -0.995966
 C        -0.659442        -1.201271        -0.002326
 C        -0.123957        -2.604166        -0.111304
 C         0.354987        -0.061889         0.028604
 O         1.548778        -0.057758        -0.010764
 O        -0.427027         1.064651         0.128017
 H        -3.479038        -0.940890         2.193109
 H        -3.385888        -1.854941         0.684895
 H        -2.488903        -2.399015         2.104806
 H        -1.062053        -0.362852         2.072054
 H        -2.505142         1.283558         0.223980
 H        -2.592276        -1.138063        -1.133880
 H        -1.315952        -0.185326        -1.957840
 H         0.567489        -2.818638         0.709602
 H        -0.930444        -3.343036        -0.085681
 H         0.429751        -2.734248        -1.046338
