19
Iteration:  2828charge 0 multiplicity 1
 C        -3.083790        -1.690155         0.241751
 C        -2.013905        -0.687667         0.433659
 C        -1.600692         0.455354        -0.633432
 C        -0.690468        -0.670262        -1.349611
 C        -0.493590        -1.227402         0.055295
 C         0.065101        -2.481259         0.510169
 C         0.122341         0.000967         0.720739
 O         0.959035         0.126835         1.632531
 O        -0.434413         1.044991         0.135144
 H        -2.768126        -2.664218         0.649768
 H        -3.898175        -1.466993         0.819989
 H        -3.451068        -1.831396        -0.764196
 H        -2.135011        -0.258852         1.501099
 H        -1.975038         1.257237        -1.179754
 H        -1.261783        -1.395633        -1.982238
 H         0.150291        -0.227320        -1.975433
 H        -0.291985        -3.435195         0.138804
 H         1.209354        -2.292477         0.184055
 H         0.043980        -2.490111         1.628461
