19
Iteration:   877
 C        -3.156100        -1.568523         0.865046
 C        -1.913069        -0.718350         0.884297
 C        -1.694967         0.458607        -0.104630
 C        -1.210248        -0.578081        -1.177950
 C        -0.667001        -1.239347         0.130019
 C         0.029935        -2.534348         0.169098
 C         0.337598        -0.079073         0.434399
 O         1.524972         0.089549         0.521511
 O        -0.443590         1.043746         0.194093
 H        -3.160846        -2.180638         1.753657
 H        -4.058450        -0.910656         0.784743
 H        -3.378271        -2.332762         0.097093
 H        -1.761991        -0.341895         1.916624
 H        -2.429411         1.275168        -0.225384
 H        -1.963087        -1.175614        -1.658155
 H        -0.399490        -0.329135        -1.864891
 H        -0.428205        -3.430714         0.601778
 H         0.161103        -2.766835        -0.872867
 H         1.101041        -2.492494         0.629866
