19
Iteration:  2642charge 0 multiplicity 1
 C        -3.135104        -1.540345         0.164104
 C        -2.027294        -0.592358         0.508929
 C        -1.669433         0.271907        -0.678308
 C        -0.742540        -0.702062        -1.304923
 C        -0.433908        -1.185042         0.242780
 C         0.166400        -2.639159         0.361283
 C         0.159582        -0.008506         0.774432
 O         0.986920         0.252502         1.664918
 O        -0.457266         0.990165         0.106592
 H        -3.228047        -1.524889        -0.962005
 H        -3.098863        -2.557384         0.520913
 H        -4.018811        -0.956420         0.565617
 H        -2.040076        -0.069618         1.508805
 H        -2.156242         1.118806        -1.161958
 H        -1.258607        -1.484955        -1.759753
 H         0.137572        -0.275436        -1.886658
 H        -0.278481        -3.307539        -0.423700
 H         1.312564        -2.618884         0.132012
 H         0.020123        -3.119413         1.357207
