19
Iteration:  3303charge 0 multiplicity 1
 C        -3.120923        -1.742241         0.374359
 C        -1.971618        -0.798625         0.457005
 C        -1.594069         0.365182        -0.518360
 C        -0.722400        -0.525029        -1.313855
 C        -0.433252        -1.159529        -0.008578
 C         0.009879        -2.596405         0.055590
 C         0.232722         0.074068         0.743912
 O         1.121178         0.141461         1.533222
 O        -0.608212         1.133097         0.439836
 H        -3.875646        -1.437869         1.129163
 H        -3.671467        -1.797057        -0.612931
 H        -2.664578        -2.706783         0.401189
 H        -2.042817        -0.281937         1.459441
 H        -2.197955         1.163999        -0.831425
 H        -1.472831        -1.134388        -1.859436
 H         0.194124        -0.168082        -1.840654
 H         0.449444        -2.932899        -0.886402
 H         0.723916        -2.860268         0.756533
 H        -0.770832        -3.301423         0.291106
