19
Iteration:  1815charge 0 multiplicity 1
 C        -3.249704        -1.547866         0.056454
 C        -2.025865        -0.719929         0.429781
 C        -1.540993         0.430069        -0.480417
 C        -0.811103        -0.656257        -1.331760
 C        -0.542766        -1.306559         0.083261
 C         0.157354        -2.606493         0.727061
 C         0.261385         0.021397         0.629843
 O         1.281093         0.059731         1.281454
 O        -0.646533         1.149404         0.370238
 H        -3.026596        -2.578960        -0.090787
 H        -3.995786        -1.470036         0.798898
 H        -3.649068        -1.211337        -0.914877
 H        -2.150931        -0.170714         1.368350
 H        -2.210084         1.064009        -1.015961
 H        -1.529651        -1.171767        -1.979957
 H         0.085437        -0.351660        -1.816355
 H         0.371962        -2.120965         1.722951
 H        -0.503300        -3.485450         0.912051
 H         1.160863        -2.884849         0.260840
