19
Iteration:  1042charge 0 multiplicity 1
 C        -3.163143        -1.532430         0.642249
 C        -1.894260        -0.757956         0.923602
 C        -1.766150         0.418049        -0.110520
 C        -1.253724        -0.654744        -1.104123
 C        -0.562252        -1.194878         0.107773
 C         0.086515        -2.468868         0.102724
 C         0.333172        -0.020593         0.407219
 O         1.484714        -0.033288         0.785337
 O        -0.435965         1.095877         0.136888
 H        -3.135271        -2.461709         1.309825
 H        -3.861882        -0.751062         0.997443
 H        -3.423422        -1.813468        -0.435719
 H        -1.711818        -0.456841         1.995343
 H        -2.452057         1.223616        -0.173749
 H        -2.120670        -1.247843        -1.522722
 H        -0.596390        -0.337287        -1.885678
 H        -0.156432        -3.082415        -0.778925
 H         1.180023        -2.202221         0.087819
 H        -0.165290        -3.002352         1.045932
