19
Iteration:   622charge 0 multiplicity 1
 C        -3.017280        -1.480672         1.063795
 C        -1.798783        -0.626607         0.979617
 C        -1.744012         0.407301        -0.204440
 C        -1.341579        -0.699050        -1.259336
 C        -0.627585        -1.217898        -0.012037
 C         0.011201        -2.606567         0.177459
 C         0.305218         0.004500         0.271208
 O         1.487197        -0.017899         0.420778
 O        -0.451466         1.114137         0.398348
 H        -2.853482        -2.166316         1.944477
 H        -3.836381        -0.808655         1.241313
 H        -3.340771        -2.087765         0.211789
 H        -1.538185        -0.014087         1.837193
 H        -2.351500         1.225757        -0.539519
 H        -2.178558        -1.402130        -1.555581
 H        -0.773150        -0.364629        -2.079208
 H        -0.694780        -3.455850         0.500817
 H         0.428692        -2.992266        -0.782823
 H         0.817880        -2.509501         0.933493
