19
Iteration:  4803
 C        -2.992290        -1.747074         0.239525
 C        -1.832483        -0.897879         0.575624
 C        -1.746018         0.518893        -0.288216
 C        -1.100395        -0.352379        -1.377235
 C        -0.533925        -1.130935        -0.098689
 C         0.262666        -2.532924        -0.001536
 C         0.220388         0.004877         0.763210
 O         1.193092        -0.047898         1.467035
 O        -0.605126         1.104781         0.506524
 H        -3.069823        -2.649433         0.921069
 H        -4.064796        -1.321039         0.339311
 H        -3.039626        -2.163839        -0.846489
 H        -1.784368        -0.649518         1.733329
 H        -2.574521         1.238626        -0.365274
 H        -1.809673        -0.975316        -1.916973
 H        -0.345640         0.049154        -2.043223
 H        -0.057585        -3.189659        -0.825732
 H         1.310990        -2.250930        -0.216813
 H         0.374384        -3.010819         0.949984
