19
Iteration:   479charge 0 multiplicity 1
 C        -2.999223        -1.487322         1.265872
 C        -1.752190        -0.539929         1.011006
 C        -1.750424         0.402269        -0.175661
 C        -1.405529        -0.665787        -1.201659
 C        -0.551884        -1.221536        -0.001944
 C        -0.023108        -2.635241         0.126115
 C         0.351208        -0.001253         0.207098
 O         1.568479        -0.015186         0.456235
 O        -0.528494         1.083448         0.148356
 H        -2.725006        -2.507736         1.638026
 H        -3.746661        -1.093574         1.920759
 H        -3.573403        -1.706046         0.343586
 H        -1.572430        -0.022912         1.950422
 H        -2.590746         1.110925        -0.437067
 H        -2.337568        -1.209852        -1.205353
 H        -0.852892        -0.397807        -2.080576
 H         0.947698        -2.847306         0.715970
 H        -0.871497        -3.245390         0.541130
 H        -0.038452        -3.048131        -0.826260
