19
Iteration:  3752charge 0 multiplicity 1
 C        -3.064567        -1.808694         0.170149
 C        -1.939034        -0.862412         0.548501
 C        -1.706366         0.449949        -0.252259
 C        -1.043529        -0.305098        -1.312676
 C        -0.510007        -1.142132        -0.019852
 C         0.189846        -2.435079         0.174612
 C         0.235058        -0.008046         0.672306
 O         1.257620        -0.091381         1.338892
 O        -0.586965         1.123905         0.469541
 H        -3.544245        -1.640971        -0.829892
 H        -2.588871        -2.758118         0.293332
 H        -3.769650        -1.790812         1.029460
 H        -1.924739        -0.697701         1.656165
 H        -2.521388         1.141751        -0.422902
 H        -1.671113        -0.719753        -2.091925
 H        -0.328093         0.135722        -1.927642
 H         0.969269        -2.610911        -0.715192
 H         0.764996        -2.439881         1.170145
 H        -0.370671        -3.464186         0.185699
