19
Iteration:  1567charge 0 multiplicity 1
 C        -3.122684        -1.737183         0.323758
 C        -2.079446        -0.616308         0.524162
 C        -1.632408         0.469191        -0.385153
 C        -0.877377        -0.561189        -1.307593
 C        -0.646079        -1.145483         0.169092
 C         0.003928        -2.518176         0.414271
 C         0.229326        -0.047206         0.668947
 O         1.365717         0.055284         1.065093
 O        -0.496850         1.032347         0.370566
 H        -2.607761        -2.602872        -0.253652
 H        -3.337738        -2.162739         1.296407
 H        -3.860516        -1.530961        -0.446847
 H        -1.994612        -0.383886         1.606255
 H        -2.082599         1.328306        -0.772416
 H        -1.361579        -1.194587        -2.123487
 H         0.063531        -0.151557        -1.719062
 H         1.017346        -2.381087         0.675820
 H        -0.570554        -2.882619         1.308625
 H         0.013386        -3.223236        -0.391837
