19
Iteration:  3277
 C        -3.136287        -1.774563         0.183810
 C        -1.980795        -0.809243         0.542889
 C        -1.685063         0.449437        -0.406967
 C        -0.761328        -0.421965        -1.380863
 C        -0.496755        -1.157235         0.084248
 C         0.071411        -2.614611         0.280805
 C         0.198744        -0.056490         0.759202
 O         1.199365         0.137616         1.402389
 O        -0.556362         1.118450         0.360483
 H        -3.842813        -1.752293         0.997303
 H        -3.610930        -1.461405        -0.770895
 H        -2.762221        -2.791861        -0.058430
 H        -2.028013        -0.480197         1.574218
 H        -2.395228         1.336037        -0.576393
 H        -1.291384        -1.133395        -1.954366
 H         0.111368         0.130406        -1.742312
 H         0.250388        -2.954137        -0.731274
 H         1.085657        -2.657424         0.783935
 H        -0.640633        -3.373981         0.567454
