19
Iteration:  3405
 C        -3.165297        -1.753313         0.141945
 C        -2.025071        -0.773782         0.567853
 C        -1.616260         0.441423        -0.286597
 C        -0.820582        -0.485005        -1.268307
 C        -0.497480        -1.171555         0.090844
 C         0.116944        -2.562503         0.291598
 C         0.244237         0.028674         0.679917
 O         1.334107         0.087058         1.190633
 O        -0.684195         1.107896         0.473527
 H        -3.549462        -1.499506        -0.868937
 H        -2.874592        -2.780133         0.038078
 H        -4.078957        -1.612887         0.771341
 H        -2.014497        -0.704056         1.650902
 H        -2.336886         1.162045        -0.718215
 H        -1.576944        -0.875813        -2.008834
 H        -0.014992        -0.205414        -1.943244
 H         1.190819        -2.514596         0.535267
 H        -0.367159        -3.257138         1.011872
 H         0.072647        -3.174892        -0.648696
