19
Iteration:  2332charge 0 multiplicity 1
 C        -3.112134        -1.650627        -0.005755
 C        -2.022534        -0.699002         0.432669
 C        -1.557494         0.480516        -0.625577
 C        -0.840458        -0.685882        -1.301124
 C        -0.539544        -1.209175         0.174731
 C         0.136522        -2.616456         0.659272
 C         0.235874         0.008906         0.658914
 O         0.996741         0.104921         1.609729
 O        -0.418941         1.148344         0.179227
 H        -3.063543        -1.938600        -1.087907
 H        -3.345665        -2.539586         0.679739
 H        -4.042138        -1.066212         0.105417
 H        -2.099984        -0.427438         1.503340
 H        -2.103926         1.156850        -1.256277
 H        -1.528282        -1.297493        -1.908173
 H         0.021954        -0.371171        -1.853483
 H        -0.595739        -3.416813         0.713705
 H         0.933295        -2.938961         0.025821
 H         0.659139        -2.408678         1.587096
