19
Iteration:  4160
 C        -3.053964        -1.877269        -0.024926
 C        -2.043664        -0.888361         0.645220
 C        -1.770798         0.423691        -0.048352
 C        -0.919673        -0.278906        -1.255559
 C        -0.598634        -1.134205         0.069867
 C         0.166584        -2.396901         0.217108
 C         0.292736        -0.023895         0.645318
 O         1.466369        -0.010778         0.913547
 O        -0.717208         1.080506         0.709373
 H        -3.353290        -2.821573         0.525341
 H        -4.102376        -1.290587        -0.139897
 H        -2.721215        -2.202452        -1.076250
 H        -1.866351        -0.798602         1.773410
 H        -2.544244         1.110748        -0.367688
 H        -1.717228        -0.757973        -1.851268
 H        -0.026543         0.214909        -1.810119
 H         1.258256        -2.203203         0.279092
 H        -0.003952        -2.753138         1.257862
 H        -0.095397        -3.166933        -0.490791
