19
Iteration:  2586charge 0 multiplicity 1
 C        -3.168506        -1.550620         0.177356
 C        -1.995887        -0.594749         0.352231
 C        -1.586867         0.322472        -0.569893
 C        -0.724134        -0.700456        -1.386127
 C        -0.462101        -1.201063         0.039076
 C         0.174747        -2.439237         0.538915
 C         0.160223        -0.017481         0.724924
 O         1.016907         0.016581         1.617755
 O        -0.543748         1.058110         0.205017
 H        -2.896423        -2.408647        -0.464723
 H        -3.367916        -1.955585         1.192247
 H        -4.151927        -1.121929        -0.158523
 H        -2.021352        -0.276678         1.455427
 H        -2.257541         1.151367        -1.024139
 H        -1.296036        -1.373884        -1.989067
 H         0.185294        -0.313364        -1.971051
 H        -0.454876        -3.432114         0.430718
 H         1.215433        -2.684406         0.235130
 H         0.382694        -2.269333         1.656451
