19
Iteration:  1754
 C        -3.066038        -1.691421         0.101199
 C        -2.033241        -0.621852         0.519146
 C        -1.567450         0.427002        -0.454174
 C        -0.883940        -0.673434        -1.197847
 C        -0.545633        -1.185709         0.315059
 C        -0.069755        -2.736103         0.467136
 C         0.239988         0.039057         0.684814
 O         1.267563         0.196687         1.254536
 O        -0.470585         1.145705         0.225665
 H        -3.447274        -2.347147         1.007052
 H        -3.899678        -1.180690        -0.508530
 H        -2.659315        -2.419219        -0.639706
 H        -2.401179        -0.016903         1.380153
 H        -2.122466         1.290837        -0.842774
 H        -1.526952        -1.451799        -1.781698
 H        -0.073412        -0.326206        -1.858235
 H        -0.789812        -3.278941         1.058899
 H         0.078430        -3.180646        -0.567272
 H         0.894262        -2.909185         0.893025
