19
Iteration:  3784
 C        -3.044220        -1.735495         0.337140
 C        -1.949426        -0.778899         0.595191
 C        -1.660686         0.453619        -0.289862
 C        -0.983392        -0.448144        -1.349601
 C        -0.428682        -1.148019        -0.100708
 C         0.239555        -2.438309        -0.104108
 C         0.186629        -0.027294         0.692018
 O         1.080144        -0.063069         1.465824
 O        -0.577091         1.103765         0.513079
 H        -2.996495        -2.354615        -0.604667
 H        -2.668302        -2.450054         1.070302
 H        -4.040989        -1.330212         0.697540
 H        -1.958850        -0.505898         1.668678
 H        -2.455022         1.145001        -0.542615
 H        -1.780532        -0.998504        -1.925204
 H        -0.177340        -0.130303        -1.975034
 H         1.064359        -2.434833        -0.936302
 H         0.827157        -2.478395         0.867508
 H        -0.501964        -3.305307        -0.287179
