19
Iteration:  1312
 C        -3.204700        -1.635966         0.565586
 C        -1.895261        -0.724672         0.668246
 C        -1.635472         0.445385        -0.288769
 C        -1.043390        -0.504691        -1.284375
 C        -0.565746        -1.217072         0.038867
 C         0.049926        -2.541326         0.343242
 C         0.254424        -0.061554         0.558037
 O         1.413453         0.026822         0.873597
 O        -0.550965         1.087654         0.335178
 H        -3.941496        -1.093689         0.038061
 H        -3.084034        -2.539549        -0.018513
 H        -3.396477        -1.922539         1.588314
 H        -1.852189        -0.447669         1.686999
 H        -2.276860         1.293723        -0.557319
 H        -1.748446        -1.124169        -1.921719
 H        -0.176069        -0.287641        -1.900759
 H        -0.193375        -2.699136         1.450400
 H        -0.145357        -3.340400        -0.302918
 H         1.187275        -2.454816         0.414676
