19
Iteration:  1825charge 0 multiplicity 1
 C        -3.196466        -1.558755         0.020499
 C        -2.031768        -0.699034         0.480283
 C        -1.573662         0.396414        -0.501274
 C        -0.840932        -0.667998        -1.301029
 C        -0.555510        -1.273758         0.106018
 C         0.132295        -2.531352         0.694684
 C         0.201480         0.015950         0.711147
 O         1.243658         0.091171         1.312815
 O        -0.521956         1.096512         0.295124
 H        -3.032731        -2.566251        -0.286458
 H        -3.958380        -1.564608         0.807756
 H        -3.815936        -1.035982        -0.784373
 H        -2.155088        -0.516495         1.558654
 H        -2.304003         1.023176        -1.013693
 H        -1.422315        -1.295408        -1.944749
 H         0.069745        -0.399241        -1.844293
 H         0.829398        -2.200501         1.527235
 H        -0.471102        -3.388166         0.933669
 H         0.775001        -2.897400        -0.159270
