19
Iteration:  2869
 C        -3.033782        -1.683301         0.266357
 C        -1.972401        -0.625482         0.416968
 C        -1.540287         0.386523        -0.659965
 C        -0.815894        -0.716765        -1.379043
 C        -0.465985        -1.128903         0.057945
 C         0.103870        -2.531575         0.406460
 C         0.184603        -0.001378         0.726185
 O         0.947920         0.088778         1.696285
 O        -0.520856         1.112276         0.179513
 H        -3.431198        -2.048021         1.272812
 H        -3.876496        -1.184884        -0.333981
 H        -2.684973        -2.556925        -0.307439
 H        -2.050049        -0.136421         1.379127
 H        -2.107860         1.239251        -1.127920
 H        -1.302745        -1.604457        -1.649753
 H         0.152156        -0.433203        -1.938801
 H        -0.593594        -3.284194         0.121561
 H         1.053101        -2.786596         0.121902
 H         0.164153        -2.468028         1.478677
