19
Iteration:   486
 C        -2.980751        -1.518805         1.294961
 C        -1.806594        -0.546734         1.009299
 C        -1.822294         0.365779        -0.219952
 C        -1.419622        -0.589960        -1.270436
 C        -0.577383        -1.163966         0.008879
 C        -0.007905        -2.664694         0.161481
 C         0.392480        -0.008853         0.266209
 O         1.578342        -0.019359         0.460126
 O        -0.496555         1.065385         0.139523
 H        -2.669315        -2.499597         1.588050
 H        -3.600557        -1.130643         2.189422
 H        -3.658485        -1.604704         0.437461
 H        -1.477064         0.010839         1.916294
 H        -2.517064         1.184067        -0.380072
 H        -2.233775        -1.269766        -1.616375
 H        -0.879779        -0.344467        -2.262280
 H         0.983620        -2.933248         0.541348
 H        -0.766428        -3.134295         0.855473
 H        -0.122258        -3.150042        -0.863995
