19
Iteration:  1854charge 0 multiplicity 1
 C        -3.153012        -1.631709         0.002009
 C        -2.065725        -0.644015         0.595428
 C        -1.598411         0.319263        -0.496088
 C        -0.827333        -0.735948        -1.162646
 C        -0.536290        -1.176503         0.245746
 C        -0.000379        -2.561473         0.435829
 C         0.272321         0.076355         0.732574
 O         1.208802         0.148413         1.506622
 O        -0.437320         1.117968         0.043711
 H        -2.826550        -2.393841        -0.739853
 H        -3.694658        -2.174754         0.866567
 H        -3.880490        -0.928153        -0.503396
 H        -2.351221        -0.427518         1.641719
 H        -2.328740         1.048154        -0.992330
 H        -1.326533        -1.489725        -1.747031
 H         0.103527        -0.421271        -1.773282
 H         1.028258        -2.676212         0.801614
 H        -0.554992        -3.265426         1.034370
 H         0.083301        -2.938345        -0.577844
