19
Iteration:  4543
 C        -3.040086        -1.929394         0.336996
 C        -2.000446        -0.838659         0.620900
 C        -1.752141         0.466829        -0.300622
 C        -0.923910        -0.317703        -1.364640
 C        -0.572840        -1.098641        -0.132366
 C         0.241766        -2.393879        -0.035353
 C         0.235336         0.033500         0.665547
 O         1.135097        -0.141834         1.517618
 O        -0.508082         1.128190         0.429493
 H        -2.584923        -2.855013         0.631161
 H        -3.886120        -1.653998         0.902280
 H        -3.457417        -1.915760        -0.656743
 H        -2.029070        -0.496036         1.606488
 H        -2.431308         1.338360        -0.300866
 H        -1.688511        -0.886648        -2.001897
 H        -0.042449         0.127674        -1.916857
 H        -0.089301        -3.176879        -0.800955
 H         1.386466        -2.254101        -0.079691
 H         0.217734        -2.739591         1.030889
