19
Iteration:  3628
 C        -3.023561        -1.779935         0.165594
 C        -1.929514        -0.784174         0.529361
 C        -1.705342         0.466298        -0.208589
 C        -0.997771        -0.416572        -1.388340
 C        -0.542028        -1.165273        -0.027001
 C         0.156027        -2.454782         0.194702
 C         0.193017         0.015446         0.669594
 O         1.225843        -0.038479         1.296670
 O        -0.554566         1.120368         0.536563
 H        -3.816729        -1.644680         0.897291
 H        -3.195946        -1.825470        -0.944566
 H        -2.647466        -2.779780         0.336095
 H        -1.830897        -0.791067         1.605067
 H        -2.523348         1.195682        -0.327213
 H        -1.769694        -0.988807        -1.929699
 H        -0.187112        -0.191224        -2.090168
 H         1.213930        -2.189713         0.088307
 H        -0.032246        -2.931430         1.244979
 H        -0.078873        -3.392846        -0.384791
