19
Iteration:  2344
 C        -3.131285        -1.637979         0.116469
 C        -2.026014        -0.651921         0.442562
 C        -1.526189         0.426131        -0.653431
 C        -0.689368        -0.694362        -1.330633
 C        -0.496260        -1.175970         0.117835
 C         0.072359        -2.495476         0.542588
 C         0.144523         0.032299         0.794127
 O         1.011697         0.066194         1.624647
 O        -0.464877         1.058557         0.124972
 H        -3.003355        -2.124976        -0.904039
 H        -2.985065        -2.556904         0.834592
 H        -4.143294        -1.180052         0.143287
 H        -2.313385        -0.145825         1.384011
 H        -2.155020         1.215600        -0.950863
 H        -1.305747        -1.461179        -1.891090
 H         0.151050        -0.471391        -1.932353
 H        -0.717302        -3.274939         0.615727
 H         0.762588        -2.818620        -0.160405
 H         0.469975        -2.468528         1.561222
