19
Iteration:  3145
 C        -3.013043        -1.775194         0.091850
 C        -2.006147        -0.769188         0.542791
 C        -1.645995         0.419047        -0.389728
 C        -0.872836        -0.542741        -1.269879
 C        -0.534385        -1.168062         0.147417
 C         0.042780        -2.550614         0.253399
 C         0.223831        -0.006090         0.719802
 O         1.147390         0.152399         1.515551
 O        -0.481098         1.089625         0.279093
 H        -3.424453        -2.463607         0.899074
 H        -3.925451        -1.324474        -0.342865
 H        -2.546468        -2.197046        -0.872156
 H        -2.091707        -0.361586         1.546185
 H        -2.214241         1.178620        -0.970541
 H        -1.548246        -1.006905        -2.093732
 H        -0.029506        -0.002150        -1.714942
 H        -0.820281        -3.128423         0.305241
 H         0.605485        -2.908037        -0.632377
 H         0.688726        -2.604374         1.073433
