19
Iteration:  1775charge 0 multiplicity 1
 C        -3.182565        -1.640572         0.058656
 C        -2.082029        -0.707295         0.567665
 C        -1.617566         0.386767        -0.497306
 C        -0.688736        -0.645815        -1.198517
 C        -0.617925        -1.213773         0.242204
 C        -0.066251        -2.571546         0.545583
 C         0.257823         0.024127         0.713621
 O         1.368247         0.139159         1.206435
 O        -0.526881         1.120867         0.233082
 H        -3.167646        -2.576959         0.727688
 H        -4.190087        -1.165074         0.062413
 H        -3.138570        -2.037175        -0.951592
 H        -2.186587        -0.551349         1.663756
 H        -2.313552         1.131550        -0.852216
 H        -1.306638        -1.204238        -1.996857
 H         0.191688        -0.219013        -1.665470
 H        -0.599161        -2.926323         1.407628
 H        -0.076087        -3.282592        -0.355085
 H         0.982863        -2.567316         0.787290
