19
Iteration:  4483charge 0 multiplicity 1
 C        -3.047774        -1.766911         0.138844
 C        -1.892422        -0.895039         0.613395
 C        -1.720406         0.431949        -0.231780
 C        -0.970554        -0.388344        -1.263039
 C        -0.425828        -1.142063        -0.013254
 C         0.203175        -2.544948        -0.170460
 C         0.190078        -0.033983         0.782281
 O         1.226041         0.142578         1.467549
 O        -0.630546         1.062997         0.501690
 H        -3.457816        -2.507878         0.877754
 H        -3.839466        -1.011227         0.424524
 H        -3.169494        -2.251375        -0.847074
 H        -2.129214        -0.741333         1.690220
 H        -2.316357         1.296666        -0.496165
 H        -1.553860        -1.037503        -1.878336
 H        -0.274803         0.190601        -1.864097
 H        -0.536859        -3.326307        -0.080711
 H         0.545059        -2.629494        -1.169553
 H         0.857590        -2.859114         0.625227
