19
Iteration:  4668charge 0 multiplicity 1
 C        -3.103689        -1.769105        -0.060349
 C        -2.030800        -0.881093         0.521669
 C        -1.807898         0.458270        -0.119789
 C        -0.972634        -0.363176        -1.245973
 C        -0.570732        -1.166383         0.017957
 C         0.206731        -2.486777         0.193637
 C         0.258582         0.017175         0.758418
 O         1.459650         0.052576         1.140833
 O        -0.652835         1.067530         0.652364
 H        -3.075511        -2.702797         0.563227
 H        -4.131727        -1.342180        -0.004808
 H        -2.800898        -2.005437        -1.071192
 H        -1.876215        -1.141674         1.628753
 H        -2.652972         1.119931        -0.352149
 H        -1.580905        -0.775925        -2.050178
 H        -0.171772         0.062384        -1.862387
 H        -0.369110        -3.417459        -0.013562
 H         1.052788        -2.457040        -0.495662
 H         0.627326        -2.626633         1.236690
