19
Iteration:  2365charge 0 multiplicity 1
 C        -3.091923        -1.659238         0.306252
 C        -2.018397        -0.640708         0.370480
 C        -1.476793         0.337727        -0.780098
 C        -0.542184        -0.710637        -1.327341
 C        -0.565337        -1.151301         0.162688
 C        -0.070811        -2.536416         0.392177
 C         0.174815         0.038216         0.775879
 O         0.996049         0.108430         1.661492
 O        -0.516798         1.125047         0.205707
 H        -3.105464        -2.363930        -0.562176
 H        -2.945035        -2.365196         1.173966
 H        -4.017568        -1.096185         0.322493
 H        -2.194107        -0.163823         1.370679
 H        -2.095286         0.921839        -1.422401
 H        -1.023670        -1.430285        -2.047777
 H         0.326960        -0.231135        -1.682138
 H        -0.788356        -3.331446         0.142481
 H         0.693118        -2.678254        -0.323723
 H         0.248311        -2.783821         1.405207
