19
Iteration:  4622charge 0 multiplicity 1
 C        -3.159095        -1.803233         0.038224
 C        -2.001404        -0.905174         0.552596
 C        -1.745454         0.439791        -0.165552
 C        -0.833930        -0.388865        -1.235537
 C        -0.515424        -1.253877         0.125187
 C         0.121017        -2.607901        -0.017743
 C         0.285793        -0.032586         0.803075
 O         1.387604         0.224171         1.084521
 O        -0.709610         1.144491         0.682582
 H        -3.320888        -2.528266         0.828133
 H        -3.992246        -1.198500         0.135618
 H        -3.039053        -2.254780        -0.940755
 H        -2.185366        -0.592136         1.568307
 H        -2.492753         1.197029        -0.418434
 H        -0.978031        -0.938624        -2.161563
 H         0.028467         0.230188        -1.557278
 H        -0.176170        -3.282303        -0.810466
 H         1.250699        -2.394052        -0.030630
 H        -0.077709        -3.172000         0.966770
