19
Iteration:  4333charge 0 multiplicity 1
 C        -3.097673        -1.808077         0.250787
 C        -1.859832        -0.851012         0.606838
 C        -1.821389         0.440875        -0.266914
 C        -0.998914        -0.382431        -1.311874
 C        -0.499289        -1.144217        -0.005010
 C         0.177646        -2.530264        -0.067554
 C         0.224445         0.001945         0.765279
 O         1.258932         0.088476         1.428346
 O        -0.552693         1.083505         0.467877
 H        -2.788096        -2.844087         0.138178
 H        -3.990498        -1.701628         0.905616
 H        -3.497472        -1.510505        -0.674421
 H        -1.882435        -0.700535         1.689264
 H        -2.540198         1.135034        -0.660575
 H        -1.533631        -1.087679        -2.025015
 H        -0.142792         0.113310        -1.930368
 H         0.240321        -2.723258        -1.217114
 H         1.225161        -2.405653         0.328030
 H        -0.205863        -3.407062         0.510111
