19
Iteration:  1388charge 0 multiplicity 1
 C        -3.124531        -1.549916         0.439006
 C        -1.870501        -0.706430         0.778096
 C        -1.743400         0.409729        -0.280648
 C        -1.089356        -0.573689        -1.263550
 C        -0.530526        -1.244012         0.045643
 C         0.030371        -2.630333         0.300947
 C         0.365934        -0.019257         0.528838
 O         1.379952         0.136581         1.186540
 O        -0.512927         1.064888         0.133875
 H        -3.874096        -1.633185         1.265670
 H        -3.554825        -1.075110        -0.502372
 H        -2.797291        -2.554056         0.061851
 H        -1.905170        -0.367540         1.794514
 H        -2.577496         1.121862        -0.568109
 H        -1.814802        -1.357126        -1.604620
 H        -0.531335        -0.161475        -2.137002
 H         1.005354        -2.837542        -0.269687
 H         0.103984        -2.811451         1.342656
 H        -0.685323        -3.439192        -0.052139
