19
Iteration:  4250charge 0 multiplicity 1
 C        -3.057946        -1.854733         0.307637
 C        -1.907563        -0.849172         0.640184
 C        -1.741110         0.417957        -0.212688
 C        -1.009751        -0.373721        -1.259258
 C        -0.555536        -1.171307        -0.038640
 C         0.219412        -2.577550        -0.165247
 C         0.213598         0.061044         0.711437
 O         1.197455         0.102839         1.411971
 O        -0.502971         1.122607         0.450293
 H        -3.158068        -2.680051         1.062327
 H        -3.990943        -1.228112         0.411698
 H        -2.958022        -2.222913        -0.788387
 H        -1.902360        -0.540418         1.717633
 H        -2.455890         1.207871        -0.565346
 H        -1.761475        -0.853454        -1.965037
 H        -0.237202         0.040141        -1.849096
 H         1.130201        -2.577369        -0.727457
 H         0.438528        -2.946128         0.877437
 H        -0.463979        -3.294892        -0.712510
