19
Iteration:  2298charge 0 multiplicity 1
 C        -3.191565        -1.529298        -0.132543
 C        -1.994317        -0.812679         0.471013
 C        -1.673949         0.320697        -0.525925
 C        -0.752305        -0.688509        -1.278117
 C        -0.491968        -1.191742         0.203383
 C         0.058808        -2.462743         0.680162
 C         0.205502        -0.010563         0.758383
 O         1.208851         0.164839         1.460260
 O        -0.519278         1.033041         0.197527
 H        -3.052928        -1.687243        -1.213533
 H        -3.576392        -2.505883         0.325777
 H        -3.928482        -0.712567        -0.048000
 H        -2.167344        -0.595666         1.561052
 H        -2.146499         1.188950        -1.077572
 H        -1.065724        -1.448060        -1.934602
 H         0.147652        -0.245658        -1.760126
 H        -0.672674        -3.212837         0.756866
 H         0.946253        -2.797291         0.071521
 H         0.245587        -2.315562         1.726650
