19
Iteration:  3759
 C        -3.055060        -1.789231         0.237110
 C        -1.916452        -0.846959         0.588042
 C        -1.750150         0.514798        -0.340902
 C        -1.064007        -0.295769        -1.352115
 C        -0.495203        -1.130069        -0.009880
 C         0.258985        -2.454413         0.127860
 C         0.261265        -0.032077         0.671116
 O         1.249615        -0.135483         1.389396
 O        -0.634778         1.094614         0.487286
 H        -3.335926        -1.767981        -0.850397
 H        -2.576196        -2.819194         0.280663
 H        -3.884182        -1.666056         0.974422
 H        -1.933047        -0.585960         1.637475
 H        -2.493979         1.269775        -0.618596
 H        -1.829573        -0.897469        -1.995670
 H        -0.273927         0.112641        -2.049392
 H         0.978569        -2.636637        -0.622440
 H         0.785997        -2.355678         1.083240
 H        -0.465399        -3.260279         0.134204
