19
Iteration:  4795charge 0 multiplicity 1
 C        -3.016356        -1.720394         0.275111
 C        -1.851723        -0.894113         0.543806
 C        -1.714660         0.476742        -0.243499
 C        -1.040678        -0.384050        -1.296618
 C        -0.422131        -1.190492        -0.132657
 C         0.231740        -2.453302        -0.050457
 C         0.185678        -0.086275         0.729410
 O         1.134102        -0.043003         1.491261
 O        -0.620049         1.164849         0.472963
 H        -2.799104        -2.494677         1.044593
 H        -3.928777        -1.180954         0.490900
 H        -3.005278        -2.292935        -0.692173
 H        -1.775882        -0.682923         1.641086
 H        -2.568687         1.049542        -0.636450
 H        -1.841013        -0.919755        -1.833628
 H        -0.394922         0.252022        -1.947572
 H        -0.188975        -3.033819        -0.836045
 H         1.256519        -2.272579        -0.399907
 H         0.239463        -3.013954         0.898693
