19
Iteration:   857charge 0 multiplicity 1
 C        -3.176265        -1.659571         0.935568
 C        -1.922128        -0.595524         0.889933
 C        -1.785757         0.423468        -0.273069
 C        -1.218340        -0.619174        -1.155993
 C        -0.524460        -1.127643         0.109344
 C         0.010818        -2.645577         0.160563
 C         0.382268         0.046691         0.351932
 O         1.572883        -0.043557         0.527857
 O        -0.485326         1.169351         0.341022
 H        -2.912892        -2.521369         1.574992
 H        -4.139645        -1.233426         1.167500
 H        -3.360409        -2.127615        -0.064232
 H        -1.818782        -0.158982         1.888149
 H        -2.442086         1.204464        -0.600613
 H        -1.935708        -1.383949        -1.499736
 H        -0.588527        -0.285490        -1.980066
 H        -0.866910        -3.327736         0.089277
 H         0.621842        -2.723085        -0.737902
 H         0.550992        -2.983872         1.060836
