19
Iteration:  1605
 C        -3.095808        -1.642798         0.196237
 C        -1.913413        -0.772476         0.612388
 C        -1.659030         0.380111        -0.361414
 C        -0.942313        -0.638700        -1.367187
 C        -0.447658        -1.184758         0.090922
 C        -0.131393        -2.604590         0.411879
 C         0.304231         0.094638         0.686074
 O         1.366369         0.131495         1.256983
 O        -0.552822         1.131037         0.268589
 H        -3.218288        -1.990295        -0.802201
 H        -3.206724        -2.480658         0.926077
 H        -3.957667        -1.034892         0.531287
 H        -2.006469        -0.553029         1.709357
 H        -2.480862         1.143837        -0.662871
 H        -1.394969        -1.469438        -1.899183
 H        -0.261649         0.025868        -1.928840
 H         0.704558        -3.087745        -0.254923
 H         0.199983        -2.723843         1.470026
 H        -1.073085        -3.262517         0.315246
