19
Iteration:  2479charge 0 multiplicity 1
 C        -3.274612        -1.610018        -0.075960
 C        -2.129644        -0.769119         0.359520
 C        -1.521442         0.286527        -0.650125
 C        -0.623789        -0.630218        -1.225071
 C        -0.518695        -1.211647         0.232058
 C         0.050292        -2.479892         0.733511
 C         0.176581         0.085287         0.742113
 O         1.300782         0.069797         1.290888
 O        -0.588916         1.093273         0.389491
 H        -3.396230        -1.799990        -1.177286
 H        -3.239567        -2.658477         0.337789
 H        -4.232084        -1.030204         0.237909
 H        -2.198417        -0.313295         1.334853
 H        -2.242684         1.061756        -1.031101
 H        -1.236186        -1.200046        -1.870694
 H         0.327817        -0.158623        -1.651653
 H        -0.142345        -3.314189         0.129858
 H         1.135317        -2.345176         0.744386
 H        -0.381984        -2.566258         1.714023
