19
Iteration:  3811charge 0 multiplicity 1
 C        -3.151716        -1.798157         0.407417
 C        -1.980550        -0.855412         0.706549
 C        -1.739289         0.436899        -0.257886
 C        -0.922467        -0.393507        -1.388504
 C        -0.325153        -1.142469        -0.065920
 C         0.175004        -2.557284        -0.280456
 C         0.200134        -0.021782         0.775828
 O         1.130517         0.085500         1.584436
 O        -0.520262         1.102830         0.333792
 H        -2.923298        -2.504944        -0.364874
 H        -3.462914        -2.330509         1.321999
 H        -3.965111        -1.166850         0.056603
 H        -1.986898        -0.546887         1.786730
 H        -2.536065         1.211191        -0.364278
 H        -1.447924        -1.155166        -1.922250
 H        -0.045412         0.212166        -1.773742
 H         1.051586        -2.301963        -0.914026
 H         0.682823        -2.937496         0.584477
 H        -0.519337        -3.173658        -0.808191
