19
Iteration:  4045charge 0 multiplicity 1
 C        -3.036755        -1.854705         0.479722
 C        -1.855540        -0.819982         0.611426
 C        -1.683803         0.513185        -0.258544
 C        -1.089338        -0.327958        -1.398362
 C        -0.471465        -1.095175        -0.087250
 C         0.291955        -2.381855        -0.119312
 C         0.214864        -0.011502         0.683030
 O         1.022967        -0.157083         1.557240
 O        -0.514683         1.080464         0.308967
 H        -2.863374        -2.800699         1.047526
 H        -4.001898        -1.474661         0.636360
 H        -3.007400        -2.152550        -0.586818
 H        -1.791053        -0.677024         1.667935
 H        -2.405480         1.373957        -0.303359
 H        -1.850444        -1.070408        -1.736346
 H        -0.440033         0.237296        -2.133916
 H         1.096651        -2.373356        -0.817686
 H         0.732185        -2.511791         0.883855
 H        -0.361014        -3.254195        -0.392384
