19
Iteration:  3086charge 0 multiplicity 1
 C        -3.186949        -1.569671         0.348863
 C        -1.957834        -0.728891         0.393839
 C        -1.610880         0.425793        -0.488675
 C        -0.752487        -0.598357        -1.464392
 C        -0.432279        -1.240073         0.003699
 C         0.275601        -2.469154         0.288119
 C         0.140165        -0.033883         0.753967
 O         1.007506         0.024682         1.618852
 O        -0.605884         1.058924         0.294651
 H        -2.908524        -2.574703         0.182587
 H        -3.738498        -1.411211         1.244365
 H        -3.763045        -1.350206        -0.478898
 H        -1.875525        -0.358193         1.407680
 H        -2.180703         1.252026        -0.895605
 H        -1.296165        -1.286961        -2.008016
 H        -0.027394        -0.101686        -2.114495
 H        -0.382954        -3.404457         0.193273
 H         1.063096        -2.564069        -0.455865
 H         0.654777        -2.632182         1.336555
