19
Iteration:   849charge 0 multiplicity 1
 C        -3.061286        -1.652845         0.904313
 C        -1.906379        -0.609468         0.888660
 C        -1.815029         0.424639        -0.272116
 C        -1.231173        -0.604578        -1.149343
 C        -0.518883        -1.172538         0.062775
 C        -0.083690        -2.598051         0.215629
 C         0.378176         0.025455         0.369030
 O         1.584326        -0.042033         0.544874
 O        -0.511965         1.162046         0.338294
 H        -2.830753        -2.612868         1.499522
 H        -3.897845        -1.164984         1.402549
 H        -3.494062        -1.966859        -0.059298
 H        -1.697338         0.021728         1.754979
 H        -2.486785         1.158184        -0.638326
 H        -2.052591        -1.373736        -1.423651
 H        -0.613899        -0.386494        -2.032047
 H        -0.704129        -3.315612        -0.411710
 H         0.870007        -2.737513        -0.512511
 H         0.308919        -2.951330         1.083932
