19
Iteration:  4709
 C        -2.993309        -1.763590         0.126151
 C        -1.890655        -0.894117         0.577838
 C        -1.774574         0.440079        -0.186447
 C        -0.959311        -0.340065        -1.309804
 C        -0.506449        -1.147490        -0.051011
 C         0.123596        -2.518385         0.002305
 C         0.221107         0.037627         0.771705
 O         1.261957        -0.013051         1.402658
 O        -0.633594         1.092553         0.481620
 H        -2.778494        -2.744678         0.536088
 H        -3.927841        -1.543993         0.497679
 H        -3.087452        -1.883246        -0.921299
 H        -2.096637        -0.712650         1.580717
 H        -2.483448         1.281031        -0.229609
 H        -1.740616        -0.828652        -1.934278
 H        -0.135752         0.138432        -1.932752
 H        -0.521148        -3.394930        -0.031413
 H         0.952193        -2.550689        -0.741546
 H         0.802932        -2.464269         0.916067
