19
Iteration:  2884
 C        -3.085379        -1.620569         0.154432
 C        -1.897096        -0.712968         0.460780
 C        -1.563184         0.350706        -0.577295
 C        -0.743925        -0.736913        -1.408553
 C        -0.470181        -1.219610         0.101595
 C         0.015054        -2.556162         0.456649
 C         0.165844         0.044030         0.749240
 O         0.994475         0.233144         1.649444
 O        -0.504270         1.075814         0.219170
 H        -3.605140        -1.728523         1.087572
 H        -3.779655        -1.303563        -0.527820
 H        -2.714814        -2.630302        -0.062756
 H        -1.976749        -0.194054         1.486568
 H        -2.232022         1.064926        -1.001834
 H        -1.622747        -1.083564        -2.104956
 H        -0.037638        -0.454332        -2.193421
 H        -0.562440        -3.393156         0.006171
 H         0.987397        -2.623906        -0.266917
 H         0.328669        -2.835163         1.492886
