19
Iteration:  4963charge 0 multiplicity 1
 C        -3.179811        -1.894902         0.277215
 C        -1.948111        -0.795566         0.558085
 C        -1.704713         0.570257        -0.298486
 C        -0.952892        -0.353278        -1.311262
 C        -0.423302        -1.137792        -0.089991
 C         0.277236        -2.485700        -0.084301
 C         0.184071        -0.057649         0.783228
 O         1.180601        -0.037421         1.478849
 O        -0.566622         1.134780         0.475970
 H        -2.908409        -2.674524         1.029844
 H        -4.140806        -1.448077         0.491496
 H        -3.210913        -2.443585        -0.615955
 H        -1.886410        -0.726537         1.644053
 H        -2.489942         1.221767        -0.688224
 H        -1.808546        -0.970274        -1.742801
 H        -0.251036         0.142900        -2.067050
 H        -0.143293        -3.243533        -0.805520
 H         1.331362        -2.312875        -0.402121
 H         0.337854        -2.905490         0.923150
