19
Iteration:   478charge 0 multiplicity 1
 C        -2.999214        -1.484724         1.258770
 C        -1.750769        -0.546972         1.008973
 C        -1.742619         0.412637        -0.169355
 C        -1.406169        -0.681390        -1.184780
 C        -0.546234        -1.228291         0.000920
 C        -0.030008        -2.629770         0.120223
 C         0.350450        -0.003797         0.199650
 O         1.561968        -0.012582         0.454962
 O        -0.529155         1.087864         0.148005
 H        -2.726634        -2.481499         1.641883
 H        -3.773659        -1.068615         1.905727
 H        -3.552948        -1.717246         0.329979
 H        -1.558166        -0.034169         1.951507
 H        -2.590531         1.106805        -0.431393
 H        -2.333008        -1.206115        -1.177174
 H        -0.842304        -0.394550        -2.086332
 H         0.936837        -2.812421         0.729000
 H        -0.886711        -3.269726         0.520647
 H         0.001510        -3.040760        -0.840025
