19
Iteration:   336charge 0 multiplicity 1
 C        -2.889730        -1.514672         1.154645
 C        -1.711520        -0.605080         1.101308
 C        -1.805646         0.433065         0.028958
 C        -1.562364        -0.683434        -1.015499
 C        -0.579311        -1.173893         0.040738
 C        -0.154922        -2.659503         0.086323
 C         0.386145        -0.028625         0.102836
 O         1.572266         0.033580         0.306620
 O        -0.386455         1.107275         0.071915
 H        -3.840701        -1.145258         0.767749
 H        -2.709795        -2.577711         0.809527
 H        -3.043378        -1.657594         2.240299
 H        -1.471160        -0.237078         2.109789
 H        -2.534866         1.262677        -0.039711
 H        -2.489552        -1.296242        -1.103296
 H        -1.169677        -0.263475        -2.002891
 H        -0.461066        -3.168604        -0.916836
 H         0.950649        -2.808864         0.269198
 H        -0.687396        -3.234865         0.815784
