19
Iteration:   608charge 0 multiplicity 1
 C        -3.115144        -1.435367         1.145038
 C        -1.800074        -0.699628         0.913475
 C        -1.778901         0.400040        -0.188534
 C        -1.307095        -0.677054        -1.200592
 C        -0.567194        -1.205036         0.049268
 C        -0.000171        -2.514566         0.131182
 C         0.343942        -0.072815         0.316288
 O         1.558286         0.048910         0.451274
 O        -0.467192         1.034946         0.244938
 H        -3.146903        -2.370609         1.727102
 H        -3.891393        -0.786900         1.560869
 H        -3.463024        -1.684517         0.115041
 H        -1.419117        -0.431106         1.902289
 H        -2.627148         1.128726        -0.224202
 H        -2.227158        -1.248053        -1.492979
 H        -0.728684        -0.563578        -2.177797
 H        -0.842464        -3.273410         0.143352
 H         0.762844        -2.690130        -0.713186
 H         0.524823        -2.632927         1.036799
