19
Iteration:  4831charge 0 multiplicity 1
 C        -3.119934        -1.802437         0.081946
 C        -2.049206        -0.858663         0.612267
 C        -1.726220         0.459888        -0.191329
 C        -0.983819        -0.333661        -1.156525
 C        -0.451416        -1.093171        -0.095638
 C         0.217280        -2.464981         0.098571
 C         0.252582        -0.032087         0.674550
 O         1.310685         0.028790         1.278800
 O        -0.596454         1.043911         0.530388
 H        -2.985194        -2.660629         0.707386
 H        -4.160286        -1.744471         0.227347
 H        -3.043490        -2.155632        -0.878250
 H        -2.206302        -0.771751         1.622612
 H        -2.517983         1.181589        -0.410662
 H        -1.551259        -0.920303        -1.897616
 H        -0.208423         0.203464        -1.759543
 H        -0.254304        -3.109413        -0.700144
 H         1.281463        -2.377879        -0.187949
 H         0.233314        -2.965507         1.098964
