19
Iteration:  4146charge 0 multiplicity 1
 C        -3.027511        -1.801702        -0.016463
 C        -1.938353        -0.941247         0.592224
 C        -1.813503         0.528073        -0.093104
 C        -0.998042        -0.380822        -1.196674
 C        -0.501880        -1.129733         0.060786
 C         0.167438        -2.486866         0.200525
 C         0.230161         0.028656         0.673544
 O         1.407943         0.021814         0.949136
 O        -0.678857         1.077835         0.703825
 H        -2.981766        -2.798418         0.458316
 H        -4.056860        -1.297804         0.084906
 H        -2.878781        -1.990137        -1.074952
 H        -2.316101        -0.901518         1.638526
 H        -2.598020         1.278856        -0.027601
 H        -1.487457        -1.025732        -1.951989
 H        -0.099810         0.156205        -1.812257
 H         1.202215        -2.335588        -0.109669
 H         0.099869        -2.893670         1.157813
 H        -0.281814        -3.243048        -0.408515
