19
Iteration:  3686charge 0 multiplicity 1
 C        -3.161054        -1.750281         0.005585
 C        -1.998492        -0.842100         0.640703
 C        -1.623816         0.448368        -0.213450
 C        -0.862817        -0.520594        -1.133454
 C        -0.498245        -1.187809         0.151554
 C         0.077522        -2.588251         0.123002
 C         0.246490        -0.005020         0.729652
 O         1.373166         0.253421         0.991874
 O        -0.687052         1.045873         0.653942
 H        -3.762732        -1.061651        -0.575428
 H        -2.883715        -2.290666        -0.823785
 H        -3.724167        -2.329472         0.742332
 H        -2.062263        -0.881589         1.747044
 H        -2.254003         1.226701        -0.647266
 H        -1.509596        -1.056818        -1.853956
 H        -0.050034        -0.174819        -1.674655
 H         1.173272        -2.398933        -0.177780
 H         0.050663        -3.092922         1.129184
 H        -0.424034        -3.037149        -0.783818
