19
Iteration:  1528charge 0 multiplicity 1
 C        -3.241615        -1.573321         0.216867
 C        -1.971994        -0.790545         0.660347
 C        -1.633962         0.453692        -0.331849
 C        -0.962081        -0.679668        -1.211801
 C        -0.524773        -1.210144         0.157493
 C         0.151432        -2.506999         0.390414
 C         0.251212         0.058597         0.606938
 O         1.353148         0.015624         1.117017
 O        -0.528570         1.146535         0.260489
 H        -2.800075        -2.510323        -0.025562
 H        -3.986396        -1.848748         1.033748
 H        -3.874230        -1.222566        -0.607920
 H        -2.053660        -0.495763         1.732623
 H        -2.447969         1.203563        -0.565277
 H        -1.745808        -1.261906        -1.747018
 H        -0.147496        -0.464944        -1.872224
 H         0.474131        -2.705682         1.452311
 H        -0.649901        -3.263036         0.140705
 H         0.913996        -2.702154        -0.402798
