19
Iteration:   729
 C        -3.275234        -1.463988         1.199975
 C        -1.833156        -0.791427         0.879738
 C        -1.768005         0.420670        -0.225967
 C        -1.218881        -0.614355        -1.197582
 C        -0.531857        -1.196478         0.048164
 C         0.037998        -2.542880         0.032918
 C         0.355888        -0.011875         0.329684
 O         1.532248         0.002140         0.578952
 O        -0.445748         1.068234         0.166589
 H        -3.228643        -2.047356         2.170399
 H        -4.048017        -0.768486         1.421902
 H        -3.620257        -2.234602         0.498635
 H        -1.572345        -0.457663         1.892581
 H        -2.423504         1.209533        -0.559841
 H        -2.079924        -1.199118        -1.685825
 H        -0.556150        -0.099160        -1.912606
 H         1.062117        -2.443529         0.519633
 H        -0.475777        -3.263782         0.737707
 H         0.059799        -3.083103        -0.806299
