19
Iteration:  4462
 C        -3.115319        -1.796439         0.012772
 C        -1.981900        -0.868721         0.627492
 C        -1.749298         0.388984        -0.164935
 C        -0.959029        -0.376186        -1.248789
 C        -0.519458        -1.168082         0.030337
 C         0.175003        -2.514538        -0.058299
 C         0.263003         0.043441         0.719601
 O         1.319343         0.098164         1.377937
 O        -0.561478         1.134113         0.546378
 H        -3.333325        -2.694228         0.687116
 H        -4.182385        -1.458272        -0.193741
 H        -2.676079        -2.344158        -0.810631
 H        -2.054707        -0.977354         1.704813
 H        -2.666794         0.980270        -0.188683
 H        -1.602013        -0.962191        -1.894586
 H        -0.270670         0.272491        -1.796961
 H        -0.406728        -3.450066         0.094191
 H         0.499363        -2.560862        -1.081240
 H         0.901249        -2.675980         0.733503
