19
Iteration:  2316
 C        -3.196852        -1.552989        -0.163430
 C        -1.963661        -0.750839         0.487534
 C        -1.503626         0.372272        -0.410516
 C        -0.840776        -0.697979        -1.356259
 C        -0.507329        -1.314577         0.148243
 C         0.109215        -2.542729         0.731909
 C         0.195143         0.037666         0.697745
 O         1.072912         0.151856         1.526155
 O        -0.453008         1.147205         0.145193
 H        -3.015946        -1.951238        -1.132345
 H        -3.192867        -2.441477         0.376253
 H        -4.152577        -1.033249        -0.130430
 H        -2.292523        -0.426899         1.480577
 H        -2.354923         1.080360        -0.663739
 H        -1.643731        -1.261440        -1.819155
 H         0.030085        -0.353015        -2.012489
 H        -0.555892        -3.436909         0.834100
 H         0.928564        -2.924985         0.012521
 H         0.513306        -2.303220         1.737583
