19
Iteration:   185
 C        -2.847505        -1.602380         1.318419
 C        -1.587157        -0.633951         1.128098
 C        -1.673969         0.456386         0.071289
 C        -1.715328        -0.576957        -1.060531
 C        -0.668025        -1.216646        -0.034356
 C        -0.146455        -2.624600         0.078814
 C         0.359529        -0.013135         0.099778
 O         1.546817        -0.027052         0.147936
 O        -0.399004         1.127251         0.142855
 H        -2.672976        -2.691503         1.340110
 H        -3.518772        -1.369213         2.189991
 H        -3.463937        -1.460395         0.412641
 H        -1.036450        -0.283766         2.044082
 H        -2.467859         1.231166        -0.028673
 H        -2.693106        -0.983499        -1.148197
 H        -1.383590        -0.147580        -1.997319
 H        -0.497409        -3.149778         1.042713
 H        -0.506742        -3.256782        -0.757427
 H         0.929020        -2.618846         0.026673
