19
Iteration:  1636charge 0 multiplicity 1
 C        -3.208324        -1.545660         0.241498
 C        -2.003043        -0.696760         0.660205
 C        -1.567878         0.437186        -0.447419
 C        -0.943573        -0.698772        -1.237539
 C        -0.569105        -1.273911         0.180490
 C         0.122502        -2.682140         0.292095
 C         0.238968         0.025297         0.653744
 O         1.217642         0.179943         1.334835
 O        -0.451652         1.112221         0.184803
 H        -3.685669        -1.326247        -0.655166
 H        -2.789963        -2.570631         0.292385
 H        -3.983327        -1.412904         0.980889
 H        -2.043201        -0.344772         1.721216
 H        -2.201009         1.260457        -0.874097
 H        -1.520510        -1.389589        -1.898364
 H        -0.184910        -0.201727        -1.849704
 H         0.344162        -3.036369        -0.730475
 H         1.065479        -2.573603         0.891172
 H        -0.404292        -3.518994         0.736414
