19
Iteration:  2125charge 0 multiplicity 1
 C        -3.348439        -1.534235         0.165447
 C        -2.002613        -0.675967         0.340803
 C        -1.486746         0.364013        -0.685228
 C        -0.528885        -0.682102        -1.360554
 C        -0.474055        -1.226313         0.197865
 C         0.120366        -2.659949         0.447360
 C         0.191115        -0.003848         0.845237
 O         1.074080         0.263688         1.621534
 O        -0.635629         0.992241         0.228241
 H        -3.404331        -1.958724        -0.821679
 H        -3.435249        -2.304260         0.998328
 H        -4.089414        -0.767107         0.316115
 H        -2.126814        -0.103167         1.292284
 H        -1.926399         1.076794        -1.410416
 H        -0.941948        -1.364453        -2.072680
 H         0.318652        -0.058683        -1.754205
 H        -0.752496        -3.326386         0.417039
 H         0.757087        -3.137033        -0.331844
 H         0.616107        -2.791106         1.413777
