19
Iteration:   804
 C        -3.037697        -1.588610         0.950279
 C        -1.793368        -0.719634         0.892897
 C        -1.800439         0.442231        -0.129302
 C        -1.428332        -0.496233        -1.158433
 C        -0.589397        -1.202396         0.003696
 C        -0.030853        -2.700582         0.216563
 C         0.455640         0.016293         0.243143
 O         1.541453         0.027339         0.787087
 O        -0.440247         1.142322        -0.006101
 H        -2.897483        -2.708757         1.017712
 H        -3.696035        -1.272418         1.754501
 H        -3.688620        -1.573645         0.037912
 H        -1.557755        -0.496099         1.951764
 H        -2.621386         1.109428        -0.216157
 H        -2.334854        -1.147598        -1.474660
 H        -0.841225         0.000308        -1.943292
 H         0.392541        -3.363358        -0.622853
 H         0.834609        -2.739741         1.038304
 H        -0.810801        -3.192306         0.743430
