19
Iteration:  1930charge 0 multiplicity 1
 C        -3.188757        -1.644022         0.274005
 C        -1.985905        -0.702638         0.363395
 C        -1.481240         0.463663        -0.631131
 C        -0.639693        -0.571697        -1.371493
 C        -0.512365        -1.230049         0.154741
 C         0.073613        -2.495631         0.645793
 C         0.113069        -0.007545         0.697632
 O         1.004098        -0.043967         1.489033
 O        -0.517873         1.147933         0.138943
 H        -3.489938        -1.756951        -0.757372
 H        -2.702507        -2.612271         0.577093
 H        -4.049588        -1.412730         0.908073
 H        -2.110897        -0.326494         1.414714
 H        -2.183802         1.045692        -1.311740
 H        -1.136603        -1.241662        -2.052385
 H         0.392736        -0.128118        -1.717865
 H         0.666544        -3.054011        -0.134568
 H         0.725312        -2.358774         1.567143
 H        -0.757854        -3.223068         0.905450
