19
Iteration:  4635charge 0 multiplicity 1
 C        -3.153656        -1.748029         0.054387
 C        -2.035048        -0.863944         0.575889
 C        -1.681239         0.438171        -0.199966
 C        -0.760641        -0.372572        -1.154820
 C        -0.573409        -1.216397         0.062330
 C         0.181652        -2.583798         0.070975
 C         0.235050         0.042359         0.731152
 O         1.401945         0.163967         1.039939
 O        -0.768823         1.051278         0.711707
 H        -3.300018        -2.683390         0.666775
 H        -4.170227        -1.350464        -0.210536
 H        -2.806494        -2.103938        -0.933427
 H        -2.034439        -0.941661         1.738721
 H        -2.472159         1.106840        -0.546205
 H        -1.443823        -0.825895        -1.842631
 H         0.119615         0.136681        -1.561883
 H        -0.347917        -3.092010        -0.725103
 H         1.221924        -2.506319        -0.262578
 H         0.233422        -3.188907         1.028874
