19
Iteration:  2067
 C        -2.946530        -1.707353        -0.089196
 C        -2.075587        -0.572210         0.451193
 C        -1.636467         0.439832        -0.518177
 C        -0.770598        -0.603180        -1.264884
 C        -0.612782        -1.182115         0.218763
 C        -0.009057        -2.556791         0.662924
 C         0.160679         0.059594         0.732310
 O         1.109371        -0.003092         1.505943
 O        -0.416874         1.061093         0.147745
 H        -2.530585        -2.178103        -1.050602
 H        -2.821523        -2.508636         0.698024
 H        -4.074465        -1.632495        -0.301845
 H        -2.441864        -0.244574         1.426994
 H        -2.167130         1.258153        -1.088235
 H        -1.167786        -1.210597        -2.074535
 H         0.025397        -0.026346        -1.653315
 H        -0.708204        -3.332624         0.745592
 H         0.765367        -2.804069        -0.068588
 H         0.406179        -2.442333         1.642065
