19
Iteration:   711
 C        -3.071555        -1.448659         1.061825
 C        -1.800667        -0.659152         0.920624
 C        -1.735912         0.393986        -0.123906
 C        -1.332201        -0.613603        -1.285309
 C        -0.657740        -1.283549         0.006973
 C        -0.001181        -2.621781         0.156144
 C         0.381883        -0.051270         0.270111
 O         1.542185         0.075340         0.573401
 O        -0.490493         1.069878         0.247366
 H        -3.173567        -1.887281         2.059884
 H        -3.901941        -0.722353         0.862794
 H        -3.150086        -2.275564         0.339215
 H        -1.504619        -0.290223         1.910927
 H        -2.474330         1.199489        -0.124606
 H        -2.115836        -1.273757        -1.561146
 H        -0.603582        -0.411280        -2.041681
 H         0.842955        -2.696181         0.853141
 H        -0.735241        -3.331553         0.482021
 H         0.296905        -2.889257        -0.977824
