19
Iteration:  2409charge 0 multiplicity 1
 C        -3.130714        -1.621165         0.216543
 C        -1.900388        -0.732909         0.417469
 C        -1.570916         0.329855        -0.638660
 C        -0.658610        -0.700689        -1.411629
 C        -0.512039        -1.196842         0.118665
 C        -0.112962        -2.615219         0.407404
 C         0.241097         0.084023         0.766166
 O         1.028913         0.283401         1.697736
 O        -0.478190         1.042602         0.186058
 H        -3.031176        -2.263738        -0.687244
 H        -3.282663        -2.442806         0.964666
 H        -3.970677        -0.972228         0.027578
 H        -1.953782        -0.184134         1.410699
 H        -2.113105         1.137014        -1.052633
 H        -1.288601        -1.396166        -2.028387
 H         0.261960        -0.369968        -1.738121
 H        -0.376500        -3.408222        -0.340956
 H         0.944054        -2.657317         0.474751
 H        -0.582806        -2.877228         1.369752
