19
Iteration:  3960charge 0 multiplicity 1
 C        -3.181987        -1.815711         0.101498
 C        -1.965561        -0.971714         0.577687
 C        -1.662451         0.483802        -0.087040
 C        -0.909468        -0.383729        -1.176971
 C        -0.430565        -1.184031         0.126554
 C         0.094784        -2.613915        -0.038961
 C         0.259136        -0.040816         0.708374
 O         1.372341         0.284440         1.083315
 O        -0.655148         1.087864         0.619154
 H        -3.530268        -2.608257         0.809805
 H        -4.049300        -1.095871        -0.100349
 H        -3.109864        -2.393051        -0.881253
 H        -2.101013        -0.728058         1.649846
 H        -2.448299         1.227907        -0.389243
 H        -1.386557        -0.842745        -2.008702
 H         0.030007         0.036549        -1.654800
 H         1.020448        -2.666183        -0.573059
 H         0.129557        -3.127605         0.879733
 H        -0.784202        -3.100558        -0.447737
