19
Iteration:  1359
 C        -3.259310        -1.550852         0.455991
 C        -1.948925        -0.764440         0.715429
 C        -1.689581         0.456697        -0.308953
 C        -1.001128        -0.699633        -1.178756
 C        -0.616012        -1.246559         0.154595
 C         0.120254        -2.568170         0.235948
 C         0.301337         0.019000         0.595448
 O         1.427001         0.146896         0.991343
 O        -0.452022         1.091575         0.261231
 H        -4.131023        -1.015252         0.882600
 H        -3.571446        -1.503266        -0.536165
 H        -3.092944        -2.587449         0.748929
 H        -2.100426        -0.463267         1.776557
 H        -2.500565         1.112538        -0.702847
 H        -1.711732        -1.401038        -1.554050
 H        -0.372195        -0.497621        -2.110490
 H         1.185977        -2.474798         0.497850
 H        -0.494011        -3.413036         0.756024
 H         0.009032        -2.981753        -0.797043
