19
Iteration:  1970charge 0 multiplicity 1
 C        -3.235531        -1.551478        -0.106693
 C        -2.021904        -0.721857         0.486175
 C        -1.544947         0.354446        -0.569124
 C        -0.857193        -0.791006        -1.193075
 C        -0.458886        -1.164222         0.243998
 C         0.110416        -2.607445         0.513272
 C         0.257626         0.077401         0.801763
 O         1.172039         0.190167         1.562549
 O        -0.507926         1.107212         0.128383
 H        -3.221810        -1.720808        -1.207826
 H        -3.305260        -2.524317         0.368138
 H        -4.201145        -1.093283         0.037080
 H        -2.153754        -0.267650         1.472278
 H        -2.226557         1.196726        -0.873630
 H        -1.466838        -1.655262        -1.516577
 H        -0.169999        -0.578003        -2.007773
 H         0.233237        -3.181146        -0.385106
 H         1.179658        -2.542166         0.940416
 H        -0.598959        -3.195860         1.055381
