19
Iteration:  5000charge 0 multiplicity 1
 C        -3.023810        -1.687711         0.397165
 C        -1.826987        -0.847276         0.634902
 C        -1.706701         0.412549        -0.321965
 C        -0.866546        -0.385762        -1.286364
 C        -0.373686        -1.120548        -0.096147
 C         0.172845        -2.531068        -0.291840
 C         0.164845        -0.058852         0.792643
 O         1.043283         0.057531         1.604851
 O        -0.659667         1.057165         0.384658
 H        -3.091979        -2.626032         0.952147
 H        -4.049559        -1.421303         0.717614
 H        -2.981417        -2.040185        -0.685893
 H        -1.565664        -0.586608         1.635781
 H        -2.465016         1.225056        -0.453919
 H        -1.390472        -1.020589        -2.011877
 H        -0.243184         0.275033        -1.908425
 H        -0.440519        -3.215876        -0.926901
 H         1.225727        -2.358288        -0.739331
 H         0.062919        -3.103559         0.709620
