19
Iteration:  3493
 C        -3.060787        -1.806899         0.047908
 C        -2.037807        -0.820563         0.579646
 C        -1.790971         0.476264        -0.286252
 C        -1.017528        -0.394230        -1.193433
 C        -0.518992        -1.173845         0.032044
 C         0.189817        -2.494895         0.301332
 C         0.287878        -0.000208         0.655714
 O         1.344551        -0.028370         1.274225
 O        -0.561363         1.110082         0.429551
 H        -2.728722        -2.846597        -0.048572
 H        -4.017132        -1.763423         0.576738
 H        -3.379175        -1.399209        -0.921081
 H        -2.009707        -0.607539         1.628931
 H        -2.524468         1.268503        -0.492007
 H        -1.564127        -0.959830        -1.902241
 H        -0.302978         0.148308        -1.842144
 H         1.074027        -2.416971        -0.308392
 H         0.403388        -2.482819         1.300777
 H        -0.413616        -3.340321         0.155468
