19
Iteration:  3548
 C        -3.158035        -1.655447         0.333866
 C        -1.992082        -0.762669         0.532582
 C        -1.666641         0.354713        -0.349788
 C        -0.904748        -0.529744        -1.426767
 C        -0.369325        -1.199274        -0.010120
 C         0.229205        -2.564311        -0.104183
 C         0.240557         0.042221         0.736504
 O         1.131279         0.100287         1.552670
 O        -0.611142         1.104091         0.507853
 H        -3.389608        -2.129656         1.288057
 H        -4.132849        -1.153662         0.142936
 H        -2.980745        -2.492047        -0.364835
 H        -1.891233        -0.458784         1.548502
 H        -2.469022         1.094172        -0.477622
 H        -1.317868        -1.275808        -2.042427
 H        -0.114444         0.094854        -1.974899
 H         0.720232        -2.732512        -1.046141
 H         0.932595        -2.808080         0.605167
 H        -0.544450        -3.292279        -0.131306
