19
Iteration:  1461
 C        -3.136135        -1.660401         0.502124
 C        -1.956304        -0.700261         0.672537
 C        -1.643367         0.452692        -0.485083
 C        -0.880284        -0.644962        -1.318456
 C        -0.575236        -1.160021         0.175372
 C        -0.007796        -2.527989         0.269718
 C         0.257713         0.010079         0.612463
 O         1.308446         0.049546         1.196342
 O        -0.513278         1.100364         0.218042
 H        -2.795360        -2.646062         0.696884
 H        -3.961122        -1.312251         1.176442
 H        -3.627008        -1.603404        -0.453143
 H        -1.896668        -0.431265         1.756650
 H        -2.374316         1.102855        -0.933592
 H        -1.679883        -1.209512        -1.876164
 H         0.016666        -0.529939        -1.840674
 H        -0.749577        -3.343521         0.165266
 H         0.725823        -2.613735        -0.566895
 H         0.605587        -2.699124         1.140218
