19
Iteration:    57charge 0 multiplicity 1
 C        -2.798957        -1.575585         1.591110
 C        -1.550627        -0.718930         1.151041
 C        -1.815214         0.476585         0.085995
 C        -1.690422        -0.458586        -1.114263
 C        -0.639605        -1.202102         0.038469
 C        -0.144210        -2.635902        -0.059506
 C         0.345287        -0.029543         0.102146
 O         1.527000        -0.091185         0.098342
 O        -0.425221         1.135295         0.027503
 H        -2.878744        -1.640349         2.685072
 H        -3.583386        -1.133225         1.060141
 H        -2.650122        -2.554415         1.116913
 H        -1.018109        -0.313696         1.990343
 H        -2.565359         1.252342         0.342080
 H        -2.377779        -1.247674        -1.504806
 H        -1.197094         0.099503        -1.920881
 H         0.732214        -2.752526        -0.601661
 H         0.059169        -3.074127         0.922050
 H        -0.925091        -3.276720        -0.651968
