19
Iteration:  1526
 C        -3.231681        -1.548822         0.216290
 C        -1.966030        -0.786778         0.673023
 C        -1.640748         0.445959        -0.327376
 C        -0.960898        -0.675208        -1.215284
 C        -0.532096        -1.228868         0.138835
 C         0.144522        -2.512242         0.386916
 C         0.247180         0.052681         0.610713
 O         1.352077         0.043872         1.122618
 O        -0.514501         1.130429         0.261363
 H        -2.855756        -2.535913        -0.037490
 H        -3.952631        -1.852147         1.036751
 H        -3.821132        -1.211623        -0.627141
 H        -2.103035        -0.516916         1.763391
 H        -2.470009         1.105229        -0.542294
 H        -1.787378        -1.272997        -1.763035
 H        -0.175088        -0.485256        -1.921114
 H         0.431712        -2.668894         1.459986
 H        -0.664482        -3.329018         0.079936
 H         0.969029        -2.638502        -0.350144
