19
Iteration:  1703
 C        -3.203762        -1.541731         0.333359
 C        -1.920219        -0.749398         0.528685
 C        -1.647112         0.414341        -0.474301
 C        -0.867816        -0.540273        -1.344174
 C        -0.465441        -1.222021         0.024627
 C         0.124114        -2.644609         0.489288
 C         0.197547        -0.012938         0.654900
 O         1.140012         0.044678         1.417117
 O        -0.493215         1.132067         0.129381
 H        -3.949109        -1.154229         0.973850
 H        -3.559021        -1.755621        -0.685595
 H        -3.040211        -2.509891         0.838805
 H        -1.917248        -0.399974         1.587489
 H        -2.212971         1.175552        -1.121869
 H        -1.521487        -1.170757        -1.901619
 H         0.049495        -0.170671        -1.886687
 H        -0.654854        -3.450934         0.382859
 H         1.059819        -2.833880         0.003186
 H         0.473553        -2.657854         1.554793
