19
Iteration:  1938
 C        -3.166776        -1.633131         0.208754
 C        -2.012734        -0.650303         0.399929
 C        -1.484041         0.452948        -0.659745
 C        -0.696735        -0.630242        -1.310008
 C        -0.604830        -1.209710         0.097929
 C         0.113506        -2.522299         0.616166
 C         0.129653        -0.043205         0.703627
 O         1.020701         0.020755         1.500157
 O        -0.488875         1.105270         0.172454
 H        -3.404033        -1.735189        -0.863109
 H        -2.852840        -2.634989         0.481469
 H        -4.033989        -1.481151         0.749036
 H        -1.977751        -0.188604         1.398099
 H        -2.127081         1.312731        -0.994423
 H        -1.129777        -1.430543        -1.956237
 H         0.312542        -0.360925        -1.690392
 H         0.723691        -2.963138        -0.170991
 H         0.849366        -2.153923         1.478760
 H        -0.530855        -3.210598         1.166911
