19
Iteration:  1596
 C        -3.103699        -1.676317         0.273008
 C        -1.900792        -0.753804         0.513930
 C        -1.664979         0.381563        -0.383210
 C        -0.937688        -0.569618        -1.328533
 C        -0.490152        -1.175442         0.120142
 C        -0.112201        -2.666386         0.437043
 C         0.294679         0.114404         0.645883
 O         1.376000         0.101042         1.215253
 O        -0.550978         1.159988         0.332549
 H        -2.940589        -2.207361        -0.698769
 H        -3.263364        -2.476871         0.983486
 H        -4.092463        -1.104095         0.143179
 H        -1.878623        -0.596152         1.592126
 H        -2.424951         1.094996        -0.823876
 H        -1.570790        -1.200433        -1.883613
 H        -0.136370        -0.202480        -2.042700
 H         0.891098        -3.041337         0.059861
 H        -0.071240        -2.704821         1.499675
 H        -1.039146        -3.244035         0.110150
