19
Iteration:   368
 C        -3.021172        -1.580396         1.274415
 C        -1.832221        -0.706043         1.087123
 C        -1.777618         0.452960        -0.052120
 C        -1.439438        -0.558859        -1.137692
 C        -0.653154        -1.226006         0.076563
 C        -0.089938        -2.615361         0.170956
 C         0.390288        -0.017393         0.154824
 O         1.620733         0.004418         0.238382
 O        -0.394421         1.130756         0.076649
 H        -3.836271        -1.037368         1.727085
 H        -3.342627        -2.207147         0.387260
 H        -2.643092        -2.205936         2.105999
 H        -1.486101        -0.329808         2.059159
 H        -2.591074         1.178964        -0.127072
 H        -2.274328        -1.208053        -1.547536
 H        -0.795090        -0.029473        -1.948939
 H        -0.877741        -3.335643        -0.331403
 H         0.850413        -2.772612        -0.462770
 H         0.158055        -2.863866         1.205022
