19
Iteration:  4019
 C        -3.022902        -1.831292         0.399475
 C        -1.840632        -0.855835         0.603468
 C        -1.717838         0.478465        -0.227783
 C        -1.099028        -0.363778        -1.312789
 C        -0.522288        -1.170430        -0.094135
 C         0.267781        -2.459934        -0.093593
 C         0.212978         0.015765         0.624365
 O         1.066619        -0.144515         1.462980
 O        -0.490192         1.235589         0.411315
 H        -3.220766        -2.485991         1.241671
 H        -3.998233        -1.426185         0.086030
 H        -2.710034        -2.443477        -0.435862
 H        -1.913781        -0.629934         1.689846
 H        -2.484703         1.202520        -0.410207
 H        -1.881659        -0.933073        -1.802312
 H        -0.345610         0.085728        -1.914281
 H         1.318237        -2.329105        -0.575879
 H         0.487630        -2.561968         1.017800
 H        -0.130116        -3.352780        -0.620567
