19
Iteration:   321
 C        -2.885404        -1.467208         1.240469
 C        -1.684048        -0.531512         1.124178
 C        -1.800078         0.467578        -0.022834
 C        -1.682261        -0.693705        -1.066488
 C        -0.615780        -1.264890         0.020806
 C        -0.086886        -2.656239         0.022037
 C         0.460503        -0.041553         0.070212
 O         1.636667        -0.023000         0.343787
 O        -0.502031         1.125219         0.149414
 H        -3.521974        -1.277737         0.383661
 H        -2.475935        -2.480351         1.077608
 H        -3.482041        -1.367223         2.140072
 H        -1.196026        -0.177562         2.035223
 H        -2.624143         1.139708        -0.083697
 H        -2.557035        -1.333056        -1.211491
 H        -1.199446        -0.536630        -2.063589
 H         0.178143        -2.952128        -0.975764
 H         0.829941        -2.683143         0.627707
 H        -0.874879        -3.377201         0.521606
