19
Iteration:  4711charge 0 multiplicity 1
 C        -2.988614        -1.773505         0.139482
 C        -1.889375        -0.883453         0.589721
 C        -1.736595         0.425894        -0.210386
 C        -0.957365        -0.341289        -1.304969
 C        -0.519450        -1.146691        -0.061669
 C         0.120579        -2.521663        -0.025443
 C         0.236848         0.052811         0.777848
 O         1.254123        -0.016602         1.414361
 O        -0.650112         1.097048         0.487766
 H        -2.788400        -2.776276         0.555695
 H        -3.948769        -1.512104         0.579686
 H        -3.076154        -1.859604        -0.912742
 H        -2.198598        -0.629418         1.591465
 H        -2.488616         1.236059        -0.243407
 H        -1.702325        -0.823220        -1.958930
 H        -0.184271         0.114340        -1.967696
 H        -0.522254        -3.436156        -0.041689
 H         0.949600        -2.562402        -0.744149
 H         0.786401        -2.446550         0.909752
