19
Iteration:   287
 C        -3.024477        -1.459799         1.508370
 C        -1.742285        -0.754530         1.023324
 C        -1.779979         0.422085         0.009571
 C        -1.492090        -0.530554        -1.159264
 C        -0.697380        -1.213927         0.039607
 C         0.046143        -2.565016        -0.014298
 C         0.367459        -0.078422         0.109740
 O         1.552319        -0.075745         0.301970
 O        -0.423075         1.122169         0.021041
 H        -3.678462        -2.030162         0.810732
 H        -2.673786        -2.129161         2.283514
 H        -3.689848        -0.787107         2.064298
 H        -1.259577        -0.479796         1.974423
 H        -2.595311         1.162661         0.076581
 H        -2.325978        -1.101288        -1.592932
 H        -0.832783        -0.071328        -1.872587
 H         0.917668        -2.515676        -0.592899
 H         0.267412        -2.891342         1.000373
 H        -0.625688        -3.404250        -0.531934
