19
Iteration:  2286
 C        -3.256729        -1.546020        -0.108446
 C        -2.013060        -0.754793         0.445226
 C        -1.541497         0.268781        -0.582130
 C        -0.625555        -0.673516        -1.235588
 C        -0.523791        -1.200007         0.276892
 C         0.010875        -2.543114         0.672242
 C         0.232059         0.035326         0.732867
 O         1.230694         0.148260         1.375144
 O        -0.619177         1.093135         0.279560
 H        -3.179170        -1.817030        -1.157824
 H        -3.441206        -2.458534         0.475107
 H        -4.173509        -0.934276         0.018633
 H        -2.311095        -0.202089         1.361663
 H        -2.323579         0.909257        -1.145865
 H        -1.070975        -1.401585        -1.861240
 H         0.257185        -0.113603        -1.659217
 H        -0.624163        -3.325956         0.369715
 H         0.998948        -2.679409         0.085949
 H         0.381127        -2.540478         1.675614
