19
Iteration:  3615
 C        -2.957631        -1.805629         0.193280
 C        -1.908515        -0.795740         0.602428
 C        -1.729354         0.569120        -0.281180
 C        -1.050053        -0.509753        -1.341057
 C        -0.495376        -1.117107        -0.058039
 C         0.182327        -2.520449         0.125232
 C         0.238539        -0.030647         0.701066
 O         1.194253        -0.045446         1.404653
 O        -0.577958         1.136766         0.460541
 H        -3.847420        -1.768257         0.839549
 H        -3.605076        -1.551327        -0.774110
 H        -2.551114        -2.834200         0.206752
 H        -2.008752        -0.524263         1.628948
 H        -2.429227         1.408074        -0.536390
 H        -1.695372        -1.123441        -1.921943
 H        -0.397335         0.197256        -2.022720
 H         1.226724        -2.502107        -0.127678
 H         0.117469        -2.763153         1.196980
 H        -0.343987        -3.140694        -0.577786
