19
Iteration:  3703
 C        -3.075251        -1.673308        -0.043560
 C        -2.002740        -0.835331         0.586685
 C        -1.786702         0.398621        -0.158750
 C        -0.888897        -0.548609        -1.224376
 C        -0.541170        -1.222251         0.195774
 C         0.090436        -2.604036         0.077901
 C         0.274513         0.062649         0.760413
 O         1.437362         0.248283         1.058964
 O        -0.642378         1.063271         0.655186
 H        -3.775543        -1.065598        -0.703026
 H        -2.580989        -2.651522        -0.483819
 H        -3.614917        -2.112587         0.821200
 H        -2.267707        -0.491440         1.583028
 H        -2.586850         1.167300        -0.310920
 H        -1.478924        -1.308932        -1.827178
 H        -0.133021        -0.114549        -2.057803
 H         1.020480        -2.653995        -0.394643
 H         0.140728        -3.058620         1.081260
 H        -0.594408        -3.281115        -0.406024
