19
Iteration:  2556
 C        -3.066604        -1.764847         0.013112
 C        -2.031959        -0.703374         0.430139
 C        -1.536941         0.428735        -0.542116
 C        -0.774683        -0.669254        -1.202422
 C        -0.549599        -1.168300         0.222100
 C        -0.037809        -2.588839         0.540751
 C         0.144088         0.096916         0.755878
 O         1.126182         0.128049         1.463381
 O        -0.411473         1.172136         0.176197
 H        -2.732298        -2.476914        -0.812190
 H        -3.443478        -2.297428         0.919933
 H        -4.073552        -1.384619        -0.444679
 H        -2.211964        -0.399126         1.464310
 H        -2.126335         1.087475        -1.208264
 H        -1.314334        -1.318301        -1.842700
 H         0.111124        -0.418541        -1.850685
 H        -0.821786        -3.278227         0.504452
 H         0.846691        -2.849965        -0.082368
 H         0.259778        -2.690082         1.559665
