19
Iteration:  3668charge 0 multiplicity 1
 C        -3.179266        -1.715976         0.064412
 C        -2.045403        -0.909291         0.544151
 C        -1.745703         0.381958        -0.234248
 C        -0.833511        -0.351110        -1.235137
 C        -0.547833        -1.204870         0.163834
 C         0.165652        -2.594214         0.178412
 C         0.257682         0.043383         0.737664
 O         1.421664         0.137505         1.027412
 O        -0.640121         1.086582         0.605440
 H        -4.150056        -1.235733        -0.153449
 H        -2.968582        -2.368052        -0.873367
 H        -3.383457        -2.421975         0.892666
 H        -2.245970        -0.609281         1.599873
 H        -2.630364         1.062661        -0.305044
 H        -1.414909        -0.989786        -1.885447
 H         0.065413         0.281941        -1.658845
 H         1.244203        -2.510141         0.170614
 H        -0.049698        -3.023534         1.121050
 H        -0.141410        -3.228447        -0.613422
