19
Iteration:  3349charge 0 multiplicity 1
 C        -3.124710        -1.755783         0.262997
 C        -1.942150        -0.752086         0.602882
 C        -1.689230         0.444261        -0.370891
 C        -0.965289        -0.500558        -1.352306
 C        -0.463740        -1.186180         0.045360
 C         0.219385        -2.550164         0.144460
 C         0.224041         0.048945         0.626942
 O         1.007488        -0.008991         1.547583
 O        -0.400475         1.189450         0.275955
 H        -4.021353        -1.100761         0.006030
 H        -2.942623        -2.365043        -0.604844
 H        -3.204808        -2.548293         1.049642
 H        -1.803727        -0.639025         1.714019
 H        -2.495009         1.158523        -0.602100
 H        -1.697180        -1.289731        -1.823068
 H        -0.205867         0.019657        -1.941339
 H         1.270071        -2.482391        -0.215154
 H         0.283355        -2.908770         1.223177
 H        -0.311874        -3.368354        -0.444613
