19
Iteration:  3217charge 0 multiplicity 1
 C        -3.155983        -1.668406        -0.164232
 C        -2.081002        -0.850949         0.552562
 C        -1.668555         0.421562        -0.290934
 C        -0.848082        -0.486498        -1.208587
 C        -0.570344        -1.236223         0.149843
 C         0.165544        -2.479878         0.482802
 C         0.215974        -0.042699         0.724612
 O         1.368096         0.118340         1.145011
 O        -0.612732         1.071813         0.470934
 H        -3.942036        -1.822049         0.609846
 H        -3.701117        -1.124530        -0.956590
 H        -2.899964        -2.686228        -0.467161
 H        -2.203823        -0.758998         1.648079
 H        -2.335334         1.168620        -0.613129
 H        -1.248047        -1.111804        -1.984928
 H         0.040695         0.002251        -1.652107
 H         0.030032        -3.214562        -0.384099
 H         1.242882        -2.148821         0.507806
 H        -0.074934        -2.891320         1.533816
