19
Iteration:   457charge 0 multiplicity 1
 C        -2.996211        -1.445489         1.118462
 C        -1.694385        -0.679387         1.030817
 C        -1.799136         0.436671        -0.055173
 C        -1.528466        -0.726684        -1.106993
 C        -0.681963        -1.222356         0.128373
 C        -0.004192        -2.614525         0.075204
 C         0.344238        -0.017232         0.232216
 O         1.545610         0.078463         0.418907
 O        -0.366094         1.090395         0.037001
 H        -3.008518        -2.155387         1.971565
 H        -3.742999        -0.702618         1.343425
 H        -3.381936        -1.987721         0.246329
 H        -1.419770        -0.507321         2.074142
 H        -2.522933         1.299395        -0.090550
 H        -2.256450        -1.516511        -1.188476
 H        -0.888287        -0.556814        -1.954008
 H         0.559257        -2.879888         1.038506
 H        -0.788017        -3.424587        -0.051252
 H         0.602245        -2.700831        -0.757773
