19
Iteration:  2978charge 0 multiplicity 1
 C        -3.126975        -1.842257        -0.012866
 C        -2.019184        -0.779556         0.435085
 C        -1.671094         0.451617        -0.499231
 C        -0.734905        -0.406111        -1.332620
 C        -0.570516        -1.167911         0.169821
 C         0.026033        -2.437408         0.695174
 C         0.210479        -0.012423         0.760501
 O         1.376767         0.010488         1.222741
 O        -0.655173         1.081586         0.391873
 H        -3.657839        -1.373971        -0.941932
 H        -2.757773        -2.841693        -0.422458
 H        -3.926624        -2.017042         0.763688
 H        -2.230706        -0.485521         1.443492
 H        -2.287267         1.208444        -0.964971
 H        -1.177976        -0.964949        -2.106830
 H         0.305902        -0.092803        -1.631317
 H        -0.377552        -3.306915         0.130955
 H         1.084039        -2.398141         0.558529
 H        -0.200499        -2.534001         1.793380
