19
Iteration:  2023charge 0 multiplicity 1
 C        -3.211161        -1.635715         0.021981
 C        -2.090026        -0.740051         0.304856
 C        -1.522261         0.359490        -0.635178
 C        -0.603947        -0.657791        -1.325607
 C        -0.463176        -1.191989         0.188699
 C        -0.001904        -2.590286         0.613630
 C         0.215461         0.014015         0.788004
 O         1.240146         0.167864         1.392659
 O        -0.642321         1.139771         0.418009
 H        -3.179784        -2.309092        -0.909981
 H        -3.327454        -2.221101         0.960733
 H        -4.103479        -0.928377        -0.184946
 H        -2.308391        -0.285847         1.271345
 H        -2.176252         1.112038        -1.115890
 H        -1.119772        -1.356332        -2.020807
 H         0.330378        -0.343541        -1.686344
 H        -0.576487        -3.300942         0.072118
 H         1.045084        -2.880057         0.596842
 H        -0.337738        -2.756524         1.619407
