19
Iteration:   339
 C        -2.917199        -1.553905         1.168461
 C        -1.692505        -0.615851         1.094716
 C        -1.783429         0.454525         0.006849
 C        -1.554766        -0.654620        -1.023405
 C        -0.585907        -1.186787         0.053678
 C        -0.159536        -2.656508         0.082876
 C         0.380325        -0.004116         0.129897
 O         1.562475         0.034547         0.294932
 O        -0.385745         1.085448         0.056338
 H        -3.874097        -1.085165         0.805063
 H        -2.731623        -2.517240         0.739530
 H        -3.084352        -1.712231         2.249135
 H        -1.369430        -0.223195         2.086920
 H        -2.560622         1.292787         0.013808
 H        -2.399822        -1.346192        -1.053760
 H        -1.135929        -0.281104        -1.910990
 H        -0.478059        -3.124334        -0.849429
 H         0.897829        -2.826262         0.235051
 H        -0.628298        -3.150269         0.903101
