19
Iteration:  1678charge 0 multiplicity 1
 C        -3.221566        -1.504363         0.394082
 C        -1.970554        -0.673194         0.573788
 C        -1.629087         0.355820        -0.512956
 C        -0.838814        -0.679970        -1.426834
 C        -0.554902        -1.207225         0.047432
 C         0.204351        -2.452470         0.396801
 C         0.217586        -0.044310         0.624180
 O         1.113163         0.012424         1.417981
 O        -0.460213         1.049663         0.254013
 H        -4.132433        -0.783761         0.300639
 H        -3.220153        -2.232960        -0.491575
 H        -3.465687        -2.044079         1.319623
 H        -1.967608        -0.178321         1.574165
 H        -2.256919         1.094503        -1.017357
 H        -1.619610        -1.284626        -2.017576
 H         0.104838        -0.507950        -1.920997
 H        -0.124201        -3.223208        -0.259923
 H         1.296319        -2.202077         0.269178
 H         0.138473        -2.829146         1.377963
