19
Iteration:  3417charge 0 multiplicity 1
 C        -3.184630        -1.732213         0.100880
 C        -1.983610        -0.891931         0.524239
 C        -1.658833         0.419598        -0.360622
 C        -0.768340        -0.469357        -1.175869
 C        -0.558438        -1.220178         0.131944
 C         0.017590        -2.571447         0.212493
 C         0.228493         0.006413         0.751469
 O         1.379010         0.193494         1.096916
 O        -0.619211         1.114513         0.537859
 H        -3.414691        -1.698824        -0.948176
 H        -2.965818        -2.734628         0.445153
 H        -4.037337        -1.478601         0.732616
 H        -2.074216        -0.600713         1.542246
 H        -2.395749         1.166703        -0.721341
 H        -1.309485        -1.246148        -1.715824
 H         0.060493         0.076945        -1.631499
 H         1.047773        -2.386541         0.601680
 H        -0.530890        -3.013874         1.104206
 H         0.044630        -3.159960        -0.733220
