19
Iteration:  1689
 C        -3.207930        -1.514592         0.422337
 C        -1.949129        -0.695091         0.501313
 C        -1.572066         0.448075        -0.502783
 C        -0.828762        -0.637250        -1.384140
 C        -0.561943        -1.289113         0.048802
 C         0.185800        -2.553812         0.428017
 C         0.181546        -0.039342         0.659876
 O         1.120701         0.023101         1.417871
 O        -0.505911         1.101507         0.175138
 H        -4.112210        -0.760977         0.500469
 H        -3.278294        -1.961300        -0.654188
 H        -3.226093        -2.354578         1.153395
 H        -1.837906        -0.335525         1.557047
 H        -2.438588         1.110211        -0.613708
 H        -1.432277        -1.293851        -2.124813
 H        -0.061698        -0.184517        -2.022634
 H        -0.125265        -3.506070         0.083188
 H         1.267075        -2.488261         0.097394
 H         0.121347        -2.510549         1.495081
