19
Iteration:  2232
 C        -3.078904        -1.733844         0.004964
 C        -2.079380        -0.692412         0.419121
 C        -1.611990         0.391178        -0.572406
 C        -0.609696        -0.695230        -1.305968
 C        -0.502996        -1.109829         0.234318
 C        -0.190594        -2.566083         0.614976
 C         0.244944         0.063094         0.808449
 O         1.282922         0.147870         1.391394
 O        -0.580647         1.106859         0.243662
 H        -2.822681        -2.321160        -0.905275
 H        -3.178139        -2.473912         0.894765
 H        -4.156489        -1.438218        -0.164067
 H        -2.354076        -0.121480         1.324246
 H        -2.234204         1.230894        -1.110813
 H        -0.855856        -1.450467        -2.001674
 H         0.335399        -0.252723        -1.698068
 H        -0.511683        -3.170815        -0.181766
 H         0.914541        -2.710746         0.813987
 H        -0.742188        -2.903447         1.474619
