19
Iteration:  3311charge 0 multiplicity 1
 C        -3.101016        -1.735260         0.386933
 C        -1.928307        -0.749404         0.509038
 C        -1.632969         0.404123        -0.509303
 C        -0.705415        -0.573855        -1.406929
 C        -0.449783        -1.141424         0.019159
 C         0.027899        -2.560476         0.051816
 C         0.193816         0.019311         0.730846
 O         1.079081         0.156605         1.553707
 O        -0.568357         1.076957         0.458689
 H        -3.908202        -1.480225         1.026851
 H        -3.548282        -1.743270        -0.654690
 H        -2.818565        -2.761799         0.673102
 H        -1.977447        -0.314889         1.508101
 H        -2.250062         1.225860        -0.937686
 H        -1.253936        -1.256306        -1.946974
 H         0.006777        -0.206933        -2.153907
 H         0.470306        -2.634945        -0.909631
 H         0.716352        -2.933662         0.774662
 H        -0.776303        -3.243077         0.103782
