19
Iteration:  2406
 C        -3.123359        -1.637570         0.223271
 C        -1.918086        -0.731151         0.427686
 C        -1.541029         0.305759        -0.652777
 C        -0.650344        -0.683301        -1.409584
 C        -0.511664        -1.240303         0.101055
 C        -0.134575        -2.624367         0.400801
 C         0.230559         0.063021         0.772191
 O         1.022773         0.300591         1.697263
 O        -0.475226         1.073005         0.195405
 H        -3.088798        -2.293196        -0.632608
 H        -3.280132        -2.294917         1.030205
 H        -4.004334        -1.015151         0.134099
 H        -1.962514        -0.125675         1.328799
 H        -2.089210         1.170908        -1.103682
 H        -1.272116        -1.333695        -2.004067
 H         0.323162        -0.273273        -1.810643
 H        -0.430614        -3.334170        -0.370901
 H         1.041751        -2.666975         0.447887
 H        -0.532787        -2.892484         1.398827
