19
Iteration:   972charge 0 multiplicity 1
 C        -2.996510        -1.721198         0.982221
 C        -1.922419        -0.693742         0.836726
 C        -1.707832         0.473786        -0.272610
 C        -1.157771        -0.543348        -1.241383
 C        -0.604242        -1.144282         0.071239
 C        -0.073780        -2.623355         0.011660
 C         0.311704         0.052381         0.447296
 O         1.459630        -0.033506         0.790821
 O        -0.455853         1.151846         0.231806
 H        -3.145936        -1.764577         2.033765
 H        -3.877770        -1.217903         0.517919
 H        -2.879575        -2.741698         0.692062
 H        -1.659460        -0.077821         1.708690
 H        -2.602515         1.089206        -0.610680
 H        -1.981681        -1.115710        -1.631738
 H        -0.455030        -0.229121        -2.068336
 H         1.007341        -2.784571        -0.145789
 H        -0.318720        -3.129038         0.904059
 H        -0.638099        -3.184272        -0.760034
