19
Iteration:  3398charge 0 multiplicity 1
 C        -3.141976        -1.723664         0.134643
 C        -2.017093        -0.763330         0.583756
 C        -1.673904         0.464659        -0.297238
 C        -0.907941        -0.502427        -1.354925
 C        -0.475743        -1.182858         0.079811
 C         0.192250        -2.554741         0.312564
 C         0.235675         0.038812         0.665170
 O         1.297690         0.040616         1.244276
 O        -0.630733         1.101419         0.472385
 H        -3.528771        -1.398176        -0.791081
 H        -2.856083        -2.810690        -0.004420
 H        -3.907778        -1.787999         0.871914
 H        -2.143182        -0.465102         1.626212
 H        -2.417108         1.194952        -0.643193
 H        -1.538867        -1.008553        -2.010956
 H        -0.010515        -0.108241        -1.930565
 H         1.298330        -2.517049         0.545556
 H        -0.422234        -3.250729         1.068684
 H         0.006186        -3.096527        -0.632158
