19
Iteration:  4723charge 0 multiplicity 1
 C        -3.013960        -1.847253         0.242515
 C        -1.961688        -0.782688         0.615766
 C        -1.635698         0.437907        -0.310735
 C        -0.955534        -0.389871        -1.343995
 C        -0.479671        -1.154389        -0.040764
 C         0.163291        -2.501099        -0.130431
 C         0.243003         0.023086         0.705505
 O         1.196312         0.006339         1.487251
 O        -0.657568         1.127198         0.575565
 H        -2.827937        -2.887799         0.564677
 H        -3.977210        -1.447149         0.668989
 H        -3.195351        -1.861237        -0.827165
 H        -1.762542        -0.505206         1.690809
 H        -2.477768         1.026362        -0.710408
 H        -1.592271        -1.032587        -1.948867
 H        -0.210264         0.207628        -1.885226
 H        -0.632242        -3.313686        -0.234590
 H         0.808327        -2.651794        -0.993825
 H         0.613154        -2.757892         0.879612
