19
Iteration:  2887charge 0 multiplicity 1
 C        -3.106677        -1.620995         0.131052
 C        -1.896043        -0.742253         0.480298
 C        -1.554236         0.330403        -0.533670
 C        -0.730646        -0.718247        -1.409129
 C        -0.480604        -1.217898         0.102944
 C         0.011253        -2.588456         0.466280
 C         0.174076         0.043058         0.752667
 O         1.010621         0.260443         1.634362
 O        -0.516347         1.089405         0.199085
 H        -3.646307        -1.674513         1.055490
 H        -3.823507        -1.247939        -0.691614
 H        -2.736849        -2.643605        -0.009121
 H        -1.951854        -0.261820         1.449480
 H        -2.182181         1.169004        -1.037735
 H        -1.619275        -1.048527        -2.009727
 H        -0.022398        -0.418952        -2.122685
 H        -0.580861        -3.442461        -0.041857
 H         0.919525        -2.630699        -0.228833
 H         0.411765        -2.881631         1.471681
