19
Iteration:  2943charge 0 multiplicity 1
 C        -3.123428        -1.680055        -0.102849
 C        -2.038675        -0.769369         0.463312
 C        -1.592117         0.440726        -0.530726
 C        -0.741779        -0.701792        -1.228456
 C        -0.581507        -1.213159         0.273848
 C         0.117819        -2.503818         0.536242
 C         0.155085        -0.005912         0.804147
 O         1.293655         0.167932         1.247258
 O        -0.638435         1.112376         0.406739
 H        -4.022006        -1.058585        -0.260820
 H        -2.814473        -2.216164        -1.085209
 H        -3.398630        -2.483696         0.574818
 H        -2.278175        -0.374361         1.424604
 H        -2.221093         1.297525        -1.009580
 H        -1.441094        -1.162402        -1.849926
 H         0.190287        -0.414705        -1.762172
 H        -0.508428        -3.410249         0.175635
 H         1.138222        -2.512251         0.129209
 H         0.210784        -2.607739         1.664963
