19
Iteration:  4504charge 0 multiplicity 1
 C        -3.109078        -1.708408         0.342589
 C        -1.879172        -0.844853         0.545186
 C        -1.708516         0.390087        -0.262807
 C        -0.880355        -0.388243        -1.349413
 C        -0.444733        -1.157554        -0.077269
 C         0.218792        -2.511856        -0.194080
 C         0.234019         0.011795         0.680490
 O         1.146040         0.030454         1.546380
 O        -0.693175         1.082313         0.547389
 H        -2.999960        -2.746645         0.799944
 H        -4.139074        -1.490068         0.719845
 H        -2.914732        -1.951330        -0.737870
 H        -1.842766        -0.391881         1.605299
 H        -2.349774         1.229367        -0.505178
 H        -1.526575        -0.931673        -1.991262
 H        -0.073417        -0.112892        -2.003585
 H        -0.472045        -3.296862        -0.272528
 H         0.870202        -2.539877        -1.032777
 H         0.708659        -2.724657         0.764294
