19
Iteration:  3643charge 0 multiplicity 1
 C        -3.120631        -1.803873         0.142330
 C        -1.971985        -0.903464         0.584611
 C        -1.680313         0.474733        -0.247062
 C        -0.920070        -0.322280        -1.287566
 C        -0.525071        -1.153893        -0.008851
 C         0.178661        -2.441438         0.256348
 C         0.229692        -0.021919         0.634218
 O         1.327976        -0.010562         1.184045
 O        -0.640737         1.055077         0.536551
 H        -4.117953        -1.427705         0.391028
 H        -3.226390        -1.889494        -0.896208
 H        -3.019396        -2.797152         0.619340
 H        -2.041275        -0.605743         1.662933
 H        -2.410220         1.230539        -0.552234
 H        -1.654496        -0.851374        -1.925108
 H        -0.191039         0.301283        -1.795921
 H         1.294874        -2.388719         0.386901
 H        -0.177817        -2.696063         1.269559
 H        -0.048189        -3.188388        -0.529924
