19
Iteration:  3584charge 0 multiplicity 1
 C        -3.071316        -1.778638         0.318421
 C        -1.887106        -0.841186         0.613512
 C        -1.677833         0.443065        -0.303695
 C        -0.906051        -0.519591        -1.337540
 C        -0.527724        -1.155587         0.006295
 C         0.123812        -2.529560        -0.124253
 C         0.210509         0.013767         0.742503
 O         1.092364         0.099393         1.554112
 O        -0.478713         1.142657         0.350012
 H        -3.470862        -1.951170         1.294427
 H        -3.728885        -1.459494        -0.511747
 H        -2.749532        -2.719140        -0.078149
 H        -1.977842        -0.634371         1.659911
 H        -2.471625         1.214458        -0.336844
 H        -1.368651        -1.130134        -2.083541
 H        -0.185886         0.138335        -1.838590
 H         0.853940        -2.334648        -0.924759
 H         0.484265        -3.022178         0.840042
 H        -0.690617        -3.219278        -0.411484
