19
Iteration:  4765
 C        -3.129487        -1.813004         0.433973
 C        -1.906710        -0.904308         0.653168
 C        -1.748365         0.462491        -0.388957
 C        -0.910425        -0.364140        -1.389065
 C        -0.449120        -1.173798        -0.089209
 C         0.204515        -2.490227        -0.196777
 C         0.264343        -0.039470         0.752881
 O         1.113257         0.029534         1.609933
 O        -0.578352         1.146007         0.450762
 H        -2.957906        -2.722985         0.999680
 H        -4.046597        -1.395673         0.723000
 H        -3.021129        -2.107811        -0.560514
 H        -1.848483        -0.629551         1.659052
 H        -2.411881         1.283170        -0.763780
 H        -1.420327        -0.783653        -2.287846
 H        -0.121578         0.282844        -1.876289
 H        -0.419069        -3.101537        -0.910113
 H         1.036942        -2.207672        -0.853943
 H         0.433849        -3.218532         0.653778
