19
Iteration:  1640
 C        -3.217902        -1.535564         0.254151
 C        -2.012091        -0.679221         0.655200
 C        -1.592188         0.431624        -0.453307
 C        -0.934274        -0.724767        -1.255539
 C        -0.564738        -1.252309         0.167198
 C         0.160586        -2.691381         0.297054
 C         0.241588        -0.003106         0.695225
 O         1.222238         0.157581         1.345179
 O        -0.457644         1.151845         0.172304
 H        -3.779538        -1.339524        -0.715691
 H        -2.871953        -2.555096         0.246061
 H        -3.931781        -1.500031         1.129992
 H        -2.155109        -0.293305         1.662939
 H        -2.204217         1.286124        -0.838727
 H        -1.566997        -1.314591        -1.857516
 H        -0.097955        -0.356059        -1.933666
 H         0.380588        -2.989178        -0.799619
 H         1.135191        -2.543554         0.730100
 H        -0.425549        -3.545268         0.823149
