19
Iteration:   350charge 0 multiplicity 1
 C        -3.000477        -1.634315         1.270510
 C        -1.651125        -0.680088         1.064209
 C        -1.702925         0.521638        -0.035661
 C        -1.509946        -0.556459        -1.076019
 C        -0.609294        -1.193630         0.127295
 C        -0.168740        -2.617451         0.112647
 C         0.375038        -0.037031         0.236592
 O         1.589600         0.039854         0.252355
 O        -0.453586         1.079234        -0.004025
 H        -3.856481        -0.990561         0.901856
 H        -2.993340        -2.374331         0.505604
 H        -3.234622        -2.130224         2.238656
 H        -1.120632        -0.406369         2.010292
 H        -2.500523         1.347864        -0.017906
 H        -2.310474        -1.258405        -1.346522
 H        -1.063432        -0.439120        -2.011332
 H        -0.623663        -3.219532        -0.675162
 H         0.905989        -2.667005        -0.011826
 H        -0.463683        -3.058564         1.036403
