19
Iteration:  3577
 C        -3.057803        -1.776524         0.341219
 C        -1.917776        -0.865933         0.595757
 C        -1.643139         0.489945        -0.360326
 C        -0.933433        -0.475226        -1.319103
 C        -0.491733        -1.219240         0.045364
 C         0.131266        -2.515733        -0.183952
 C         0.211097        -0.009222         0.763802
 O         1.082467         0.141708         1.562442
 O        -0.513940         1.123384         0.353843
 H        -3.624300        -1.889078         1.323178
 H        -3.759050        -1.184439        -0.243903
 H        -2.950098        -2.821503        -0.090140
 H        -1.836518        -0.692882         1.740669
 H        -2.360849         1.293587        -0.535377
 H        -1.325616        -1.267646        -2.082039
 H        -0.054926         0.063663        -1.640752
 H         0.895198        -2.802300        -0.956793
 H         0.702471        -2.856490         0.743219
 H        -0.683128        -3.276231        -0.454770
