19
Iteration:  2011charge 0 multiplicity 1
 C        -3.207374        -1.533392         0.017089
 C        -1.983037        -0.710318         0.410354
 C        -1.595155         0.342522        -0.575221
 C        -0.541968        -0.605027        -1.294667
 C        -0.480883        -1.255422         0.187314
 C        -0.043434        -2.665150         0.581097
 C         0.187812        -0.002582         0.811167
 O         1.206225         0.286989         1.382311
 O        -0.639474         0.982105         0.319135
 H        -3.015656        -2.068156        -0.979746
 H        -3.675332        -2.262911         0.694039
 H        -4.068177        -0.763278        -0.139740
 H        -2.116740        -0.313857         1.416684
 H        -2.202523         0.995716        -1.175989
 H        -1.012189        -1.312639        -2.038689
 H         0.339385        -0.196109        -1.720508
 H        -0.260568        -3.453189        -0.120006
 H         1.009802        -2.584169         0.662358
 H        -0.413268        -2.853818         1.583986
