19
Iteration:   156
 C        -2.896741        -1.560167         1.536740
 C        -1.749493        -0.638947         0.993843
 C        -1.821846         0.502540         0.041419
 C        -1.531243        -0.521631        -1.151031
 C        -0.694175        -1.192721         0.004851
 C        -0.104304        -2.562731         0.016647
 C         0.412235        -0.102562         0.144139
 O         1.630100        -0.104663         0.000492
 O        -0.482846         1.053354         0.284135
 H        -2.443060        -2.272246         2.259126
 H        -3.516543        -0.864488         2.021728
 H        -3.424709        -2.042742         0.707646
 H        -1.217596        -0.291108         1.863099
 H        -2.566868         1.325584        -0.113354
 H        -2.419242        -1.149560        -1.422237
 H        -0.980384         0.008771        -1.909903
 H        -0.654683        -3.340233         0.411722
 H         0.244495        -2.791190        -0.990105
 H         0.946585        -2.517479         0.572285
