19
Iteration:   389charge 0 multiplicity 1
 C        -2.956208        -1.510250         1.258966
 C        -1.765162        -0.606006         1.013718
 C        -1.816857         0.514405        -0.139619
 C        -1.432282        -0.664767        -1.177156
 C        -0.586157        -1.182016         0.044851
 C        -0.012215        -2.576730         0.179101
 C         0.338989        -0.097769         0.198946
 O         1.562984        -0.048897         0.219796
 O        -0.501994         1.060375         0.267338
 H        -3.518481        -1.101488         2.072709
 H        -3.615851        -1.529265         0.339551
 H        -2.695868        -2.532222         1.548504
 H        -1.416388        -0.135091         1.937684
 H        -2.525854         1.332381        -0.289312
 H        -2.362207        -1.230951        -1.260636
 H        -0.857271        -0.341408        -2.122683
 H        -0.823346        -3.366479         0.312123
 H         0.500595        -2.865375        -0.798656
 H         0.796941        -2.602408         0.922447
