19
Iteration:  2186
 C        -3.082105        -1.639264        -0.007735
 C        -1.982262        -0.621170         0.425776
 C        -1.587491         0.402691        -0.530868
 C        -0.868816        -0.698603        -1.388538
 C        -0.515057        -1.234920         0.114459
 C         0.080390        -2.529905         0.624599
 C         0.215524        -0.049129         0.731699
 O         1.046268         0.149505         1.621428
 O        -0.404376         1.087841         0.180306
 H        -2.880653        -2.160209        -0.967404
 H        -3.363304        -2.367122         0.755346
 H        -4.060474        -1.148204        -0.287590
 H        -2.013168        -0.349552         1.513821
 H        -2.292622         1.250252        -0.928080
 H        -1.524302        -1.434016        -1.918461
 H        -0.128335        -0.347608        -2.135537
 H        -0.258809        -3.450448         0.125048
 H         1.187200        -2.374976         0.800669
 H        -0.370557        -2.630447         1.631508
