19
Iteration:   142
 C        -2.942786        -1.501395         1.575013
 C        -1.734616        -0.707257         1.185224
 C        -1.757225         0.420143        -0.012924
 C        -1.478145        -0.451326        -1.185091
 C        -0.658468        -1.218478         0.054062
 C        -0.033864        -2.566646        -0.067593
 C         0.309951        -0.056921         0.151276
 O         1.520988        -0.093459        -0.006525
 O        -0.408043         1.061378         0.197353
 H        -2.730585        -2.139234         2.422029
 H        -3.840029        -1.018565         1.939111
 H        -3.262442        -2.264114         0.876872
 H        -1.313670        -0.226099         2.097494
 H        -2.518642         1.220053         0.078790
 H        -2.312837        -0.900025        -1.632737
 H        -0.837877        -0.115703        -1.950856
 H        -0.879502        -3.344282        -0.092614
 H         0.515020        -2.690311        -1.007763
 H         0.615775        -2.694181         0.807804
