19
Iteration:  1127
 C        -3.015321        -1.622465         0.637677
 C        -1.870877        -0.747817         0.856039
 C        -1.731283         0.491438        -0.233431
 C        -1.190521        -0.526207        -1.226280
 C        -0.574589        -1.206754         0.084101
 C        -0.122575        -2.647885         0.225008
 C         0.344797        -0.030609         0.437728
 O         1.485440         0.082214         0.818927
 O        -0.459438         1.129256         0.230699
 H        -2.626503        -2.582103         0.340071
 H        -3.546007        -1.845592         1.562743
 H        -3.871364        -1.431172        -0.006659
 H        -1.679458        -0.536801         1.940602
 H        -2.404251         1.323507        -0.351154
 H        -2.042210        -1.215314        -1.572744
 H        -0.665773        -0.143692        -2.082005
 H        -0.124081        -2.968524         1.319835
 H        -0.797125        -3.290481        -0.201112
 H         0.965956        -2.864738        -0.091075
