19
Iteration:  3490
 C        -3.066397        -1.806445         0.049142
 C        -2.025356        -0.823433         0.556709
 C        -1.759092         0.454030        -0.259575
 C        -1.015194        -0.376275        -1.210141
 C        -0.514256        -1.152667         0.067287
 C         0.157440        -2.492037         0.302841
 C         0.298979        -0.016939         0.659742
 O         1.351464        -0.016340         1.255314
 O        -0.578715         1.108749         0.434307
 H        -2.608472        -2.854268        -0.135725
 H        -4.040878        -1.809912         0.548964
 H        -3.392397        -1.335609        -0.952489
 H        -2.034669        -0.629630         1.702540
 H        -2.505522         1.212428        -0.544130
 H        -1.684984        -1.105229        -1.906621
 H        -0.311529         0.144845        -1.883330
 H         1.086294        -2.389617        -0.253432
 H         0.383721        -2.431388         1.380766
 H        -0.480464        -3.378601         0.069520
