19
Iteration:   779charge 0 multiplicity 1
 C        -2.993665        -1.480768         0.989051
 C        -1.765746        -0.646182         0.951070
 C        -1.719154         0.434416        -0.165602
 C        -1.396768        -0.753476        -1.217481
 C        -0.613813        -1.183154         0.008689
 C         0.027128        -2.494952         0.075844
 C         0.307245        -0.077287         0.341942
 O         1.436755         0.019514         0.720884
 O        -0.401910         1.063442         0.124229
 H        -3.019018        -2.543873         1.151149
 H        -3.702103        -1.016141         1.746868
 H        -3.556807        -1.383297         0.044258
 H        -1.505945        -0.316372         1.979570
 H        -2.559804         1.177179        -0.296474
 H        -2.302118        -1.297864        -1.243590
 H        -0.898896        -0.535317        -2.179502
 H         0.942089        -2.555564        -0.490955
 H         0.370914        -2.744044         1.107553
 H        -0.766162        -3.358940        -0.129125
