19
Iteration:  3897charge 0 multiplicity 1
 C        -3.104401        -1.866790         0.017027
 C        -2.033351        -0.914584         0.532732
 C        -1.743653         0.452929        -0.099776
 C        -1.046871        -0.245270        -1.284037
 C        -0.573970        -1.161114         0.053400
 C         0.177997        -2.413225         0.235301
 C         0.264712        -0.022449         0.749606
 O         1.408255        -0.029126         1.039239
 O        -0.566495         1.087543         0.614783
 H        -2.591675        -2.829958        -0.125299
 H        -3.956991        -2.096072         0.696093
 H        -3.466196        -1.597056        -0.988207
 H        -2.164057        -0.894826         1.660840
 H        -2.499439         1.259962        -0.164082
 H        -1.581577        -0.627326        -2.128390
 H        -0.243430         0.412393        -1.697207
 H         1.308684        -2.251775        -0.171125
 H         0.292393        -2.558521         1.352475
 H        -0.165535        -3.369746        -0.299729
