19
Iteration:  2165charge 0 multiplicity 1
 C        -3.251110        -1.586728         0.113326
 C        -2.046773        -0.691225         0.428757
 C        -1.481305         0.383994        -0.667989
 C        -0.680222        -0.752589        -1.313554
 C        -0.485771        -1.174580         0.196714
 C         0.158538        -2.474560         0.516724
 C         0.157686         0.053697         0.768453
 O         1.031927         0.020615         1.621791
 O        -0.516102         1.102630         0.138570
 H        -3.199436        -2.167872        -0.852689
 H        -3.449406        -2.245225         1.008820
 H        -4.180043        -0.931090        -0.012097
 H        -2.289377        -0.323322         1.454350
 H        -2.116420         1.228942        -1.155059
 H        -1.206539        -1.468211        -1.950793
 H         0.261397        -0.454219        -1.795502
 H        -0.329536        -3.218782        -0.091529
 H         1.246248        -2.402176         0.216206
 H         0.238176        -2.748156         1.553995
