19
Iteration:   725
 C        -3.227625        -1.481958         1.172682
 C        -1.831731        -0.779724         0.891246
 C        -1.731376         0.432965        -0.189395
 C        -1.218611        -0.645509        -1.211578
 C        -0.566368        -1.187901         0.040048
 C        -0.013872        -2.547171         0.077330
 C         0.377930        -0.019667         0.283098
 O         1.538402         0.022237         0.584997
 O        -0.468913         1.056550         0.190791
 H        -3.264648        -1.917068         2.172409
 H        -4.055625        -0.686196         1.316183
 H        -3.615709        -2.246804         0.467733
 H        -1.482185        -0.435971         1.895941
 H        -2.535587         1.174275        -0.512128
 H        -2.032294        -1.152445        -1.709608
 H        -0.603875        -0.117283        -2.005302
 H         0.958007        -2.327008         0.504154
 H        -0.470899        -3.364863         0.683445
 H         0.232810        -3.106270        -0.974975
