19
Iteration:  3655
 C        -3.196884        -1.825316         0.096248
 C        -1.994021        -0.811874         0.546344
 C        -1.831354         0.466826        -0.223853
 C        -0.909275        -0.356609        -1.277879
 C        -0.458075        -1.142376         0.049415
 C         0.183506        -2.534397         0.272690
 C         0.248092        -0.023925         0.728370
 O         1.392604         0.049076         1.092545
 O        -0.631433         1.067136         0.566404
 H        -4.026091        -1.135865         0.266627
 H        -3.043329        -2.171736        -0.905643
 H        -3.364706        -2.732616         0.715769
 H        -1.974368        -0.789575         1.676252
 H        -2.454398         1.331375        -0.518908
 H        -1.146512        -0.920949        -2.181239
 H        -0.080058         0.317326        -1.653069
 H         1.290648        -2.350954         0.204471
 H        -0.108253        -3.099668         1.123895
 H        -0.091295        -3.236431        -0.517054
