19
Iteration:  2661charge 0 multiplicity 1
 C        -3.123969        -1.622559         0.069580
 C        -1.964696        -0.722973         0.479710
 C        -1.491310         0.358020        -0.515079
 C        -0.779492        -0.806087        -1.302085
 C        -0.518441        -1.203589         0.189367
 C         0.005372        -2.607857         0.411225
 C         0.209459         0.079824         0.764456
 O         1.068958         0.242779         1.626335
 O        -0.515732         1.184428         0.116642
 H        -3.272349        -1.719508        -0.964196
 H        -2.787272        -2.610142         0.390732
 H        -4.016453        -1.428545         0.584471
 H        -2.162896        -0.206600         1.467642
 H        -2.189010         0.986008        -1.184379
 H        -1.479138        -1.518190        -1.735944
 H         0.173940        -0.589912        -1.847076
 H        -0.444851        -3.349409        -0.372889
 H         1.064743        -2.707514         0.204650
 H        -0.098779        -3.036189         1.456281
