19
Iteration:  4814
 C        -3.064119        -1.849445         0.185628
 C        -1.970595        -0.791412         0.605062
 C        -1.730176         0.463044        -0.209568
 C        -1.074843        -0.341130        -1.408730
 C        -0.486277        -1.143622        -0.015492
 C         0.287224        -2.502882        -0.005966
 C         0.243297         0.030156         0.683912
 O         1.226549        -0.026386         1.413214
 O        -0.583507         1.070806         0.536715
 H        -3.106141        -2.840520         0.733154
 H        -3.978580        -1.149248         0.310299
 H        -2.841177        -2.053709        -0.940115
 H        -1.916347        -0.698962         1.791237
 H        -2.390455         1.339283        -0.262015
 H        -1.807331        -0.948127        -1.935807
 H        -0.384719         0.126832        -2.109455
 H        -0.036626        -3.374019        -0.589829
 H         1.368366        -2.334258        -0.150209
 H         0.033112        -2.817586         0.992956
