19
Iteration:  3132
 C        -3.037011        -1.745678         0.065133
 C        -1.952501        -0.741570         0.578645
 C        -1.664650         0.491561        -0.429216
 C        -0.907764        -0.482267        -1.288215
 C        -0.502239        -1.175023         0.121599
 C         0.107469        -2.576095         0.287564
 C         0.220662         0.030351         0.759861
 O         1.079002         0.041844         1.579534
 O        -0.473820         1.113629         0.144788
 H        -3.048319        -2.624997         0.754606
 H        -3.951823        -1.221492         0.108206
 H        -2.884707        -2.313624        -0.857212
 H        -2.156615        -0.579246         1.614782
 H        -2.419470         1.194858        -0.542395
 H        -1.516794        -1.266351        -1.782690
 H        -0.152442        -0.140248        -1.946921
 H        -0.529752        -3.424319         0.474121
 H         0.691745        -2.756406        -0.663319
 H         0.800779        -2.625453         1.157733
