19
Iteration:   355charge 0 multiplicity 1
 C        -3.012105        -1.626446         1.299196
 C        -1.684367        -0.722732         1.081754
 C        -1.719937         0.522564        -0.029655
 C        -1.476799        -0.558324        -1.129239
 C        -0.623900        -1.177036         0.123804
 C        -0.154317        -2.601448         0.135283
 C         0.407124        -0.086731         0.254332
 O         1.600449         0.041673         0.237901
 O        -0.461486         1.117152        -0.013796
 H        -3.864588        -0.987222         1.123476
 H        -3.135710        -2.374139         0.444451
 H        -3.158965        -2.249287         2.180953
 H        -1.268815        -0.504966         2.069816
 H        -2.416613         1.302291        -0.137194
 H        -2.420726        -1.066447        -1.422643
 H        -0.925345        -0.317705        -2.124927
 H        -0.749868        -3.262962        -0.534095
 H         0.919735        -2.570331        -0.162503
 H        -0.324524        -3.166840         1.149443
