19
Iteration:  3397
 C        -3.136624        -1.718106         0.130800
 C        -2.012652        -0.765828         0.587872
 C        -1.687377         0.465922        -0.305390
 C        -0.923265        -0.503496        -1.367882
 C        -0.475531        -1.186227         0.077716
 C         0.203311        -2.552554         0.312958
 C         0.234698         0.037480         0.664388
 O         1.289738         0.033834         1.253978
 O        -0.616184         1.101434         0.473471
 H        -3.531582        -1.378571        -0.774522
 H        -2.842083        -2.787194         0.001744
 H        -3.876794        -1.816878         0.897087
 H        -2.159791        -0.417844         1.590615
 H        -2.442232         1.214492        -0.624732
 H        -1.543133        -1.068099        -1.991560
 H        -0.022300        -0.072153        -1.902578
 H         1.317865        -2.511631         0.555627
 H        -0.429838        -3.227468         1.107991
 H         0.008914        -3.084183        -0.653051
