19
Iteration:  4264
 C        -3.038372        -1.796806         0.378812
 C        -1.950899        -0.811369         0.619671
 C        -1.731326         0.500970        -0.249951
 C        -1.011830        -0.399382        -1.329752
 C        -0.406528        -1.132032        -0.067198
 C         0.213838        -2.467568        -0.114622
 C         0.215336        -0.069840         0.646996
 O         1.138419        -0.013172         1.458346
 O        -0.566996         1.123951         0.442868
 H        -2.758236        -2.703992         0.959284
 H        -4.060540        -1.566615         0.643923
 H        -3.139541        -2.119670        -0.695438
 H        -1.826849        -0.686072         1.693581
 H        -2.515272         1.270501        -0.270873
 H        -1.560217        -1.151897        -1.945432
 H        -0.373749         0.156371        -2.053474
 H         1.059357        -2.435932        -0.895403
 H         0.690028        -2.695519         0.913898
 H        -0.459326        -3.385443        -0.321792
