19
Iteration:  4747charge 0 multiplicity 1
 C        -3.050576        -1.822931         0.374869
 C        -1.957714        -0.822062         0.485577
 C        -1.648318         0.480974        -0.280234
 C        -0.861743        -0.360866        -1.305433
 C        -0.471229        -1.160916        -0.032710
 C         0.172244        -2.508792        -0.279751
 C         0.174624         0.010384         0.820539
 O         1.124056         0.062190         1.553717
 O        -0.596499         1.040906         0.428664
 H        -2.704405        -2.676288         1.001491
 H        -3.894887        -1.284440         0.973048
 H        -3.441643        -2.258659        -0.600164
 H        -1.985412        -0.368677         1.580360
 H        -2.508601         1.148736        -0.343080
 H        -1.499008        -1.098779        -1.779994
 H        -0.067422         0.053338        -1.912839
 H        -0.471028        -3.328294        -0.689617
 H         1.025360        -2.435081        -0.970111
 H         0.499785        -2.850674         0.685482
