19
Iteration:  4974
 C        -3.144005        -1.845517         0.354046
 C        -1.966575        -0.867565         0.446334
 C        -1.667894         0.465251        -0.269163
 C        -0.961083        -0.374308        -1.330360
 C        -0.477091        -1.144627        -0.047896
 C         0.268113        -2.493543        -0.159826
 C         0.244324         0.051588         0.723629
 O         1.136436        -0.019424         1.575137
 O        -0.557528         1.139568         0.464909
 H        -2.979000        -2.583143         1.182261
 H        -4.119563        -1.451947         0.614362
 H        -3.199331        -2.314991        -0.579192
 H        -1.948216        -0.607857         1.516147
 H        -2.367189         1.306099        -0.272739
 H        -1.625704        -1.008786        -2.012482
 H        -0.207109         0.105606        -2.062695
 H        -0.252509        -3.168071        -0.900658
 H         1.322307        -2.326889        -0.471972
 H         0.246775        -3.027337         0.803820
