19
Iteration:  3029charge 0 multiplicity 1
 C        -3.057046        -1.666664         0.062915
 C        -1.986109        -0.701319         0.528502
 C        -1.667181         0.335935        -0.493297
 C        -0.826888        -0.639928        -1.286766
 C        -0.519175        -1.231336         0.166134
 C         0.021986        -2.641907         0.299572
 C         0.197201         0.067640         0.799732
 O         1.229340         0.228454         1.434326
 O        -0.541290         1.109146         0.336257
 H        -2.825128        -2.097477        -0.832719
 H        -3.189233        -2.548160         0.708757
 H        -3.965894        -1.161070        -0.004259
 H        -2.255132        -0.387053         1.559086
 H        -2.161625         1.231632        -1.020902
 H        -1.424477        -1.382054        -1.750565
 H        -0.104913        -0.181643        -1.967520
 H        -0.317432        -3.281700        -0.592013
 H         1.126349        -2.599317         0.350400
 H        -0.159663        -2.918516         1.353709
