19
Iteration:   529
 C        -2.968955        -1.590036         1.293022
 C        -1.771646        -0.615718         1.039598
 C        -1.754221         0.513476        -0.252641
 C        -1.435420        -0.660817        -1.276189
 C        -0.555926        -1.206199        -0.019857
 C        -0.044775        -2.601688         0.177455
 C         0.332709        -0.020519         0.233702
 O         1.486302        -0.046847         0.556855
 O        -0.434360         1.146893         0.077769
 H        -2.721539        -2.618035         1.109435
 H        -3.540893        -1.590777         2.290651
 H        -3.746875        -1.416292         0.529245
 H        -1.482730        -0.276606         2.052779
 H        -2.449127         1.319985        -0.489007
 H        -2.247598        -1.362642        -1.544643
 H        -0.897838        -0.212688        -2.225548
 H         0.753359        -2.888569        -0.501428
 H         0.463801        -2.648324         1.162935
 H        -0.881947        -3.388721         0.125329
