19
Iteration:  4620
 C        -3.154434        -1.821604         0.044610
 C        -1.993763        -0.899229         0.550184
 C        -1.756356         0.427529        -0.162830
 C        -0.840200        -0.373106        -1.243787
 C        -0.492159        -1.241888         0.146154
 C         0.105836        -2.606708        -0.031208
 C         0.279335        -0.033305         0.812110
 O         1.378094         0.228328         1.095101
 O        -0.688149         1.133084         0.666519
 H        -3.354485        -2.476735         0.839542
 H        -3.946674        -1.163630         0.190643
 H        -3.082533        -2.216697        -0.966191
 H        -2.240964        -0.645691         1.510999
 H        -2.504967         1.188269        -0.426716
 H        -1.037300        -0.945965        -2.211504
 H         0.034734         0.231100        -1.611659
 H        -0.186385        -3.281498        -0.861234
 H         1.247791        -2.426257         0.071290
 H        -0.063317        -3.123365         0.953014
