19
Iteration:  2417
 C        -3.124436        -1.610149         0.138501
 C        -1.934696        -0.703621         0.442277
 C        -1.579494         0.392079        -0.587591
 C        -0.728912        -0.746558        -1.346065
 C        -0.448784        -1.130199         0.137264
 C        -0.058443        -2.585815         0.449676
 C         0.250576         0.081541         0.768964
 O         1.036068         0.214607         1.659083
 O        -0.501313         1.018014         0.135372
 H        -2.884109        -2.000375        -0.840005
 H        -3.324609        -2.374242         0.808354
 H        -3.992427        -1.001978        -0.046649
 H        -2.056997        -0.509462         1.503850
 H        -2.370246         1.103147        -0.970367
 H        -1.138305        -1.516365        -2.003049
 H         0.215086        -0.459306        -1.944763
 H        -0.338275        -3.337951        -0.290977
 H         1.099637        -2.702214         0.727902
 H        -0.591976        -2.943841         1.359743
