19
Iteration:  3570charge 0 multiplicity 1
 C        -3.108474        -1.764103         0.367724
 C        -1.909666        -0.856804         0.602351
 C        -1.634220         0.482651        -0.368847
 C        -0.900152        -0.418179        -1.279307
 C        -0.443574        -1.202102         0.023897
 C         0.159829        -2.584682        -0.201883
 C         0.203667        -0.016627         0.758884
 O         1.097262         0.162966         1.581933
 O        -0.571621         1.075254         0.349720
 H        -3.717177        -1.958369         1.254082
 H        -3.885298        -1.086439        -0.109503
 H        -2.986667        -2.742064        -0.142640
 H        -1.771403        -0.589553         1.629853
 H        -2.299799         1.227888        -0.835155
 H        -1.513007        -1.057808        -1.899040
 H         0.083650        -0.111816        -1.852708
 H         0.843771        -2.747415        -1.052456
 H         0.715607        -2.788825         0.645225
 H        -0.607130        -3.296376        -0.317322
