19
Iteration:   575charge 0 multiplicity 1
 C        -3.158022        -1.493420         1.094169
 C        -1.814296        -0.657491         1.089719
 C        -1.813337         0.415504        -0.081842
 C        -1.431407        -0.650414        -1.100952
 C        -0.589254        -1.257082         0.103428
 C         0.074396        -2.697539         0.096710
 C         0.347548        -0.010866         0.235741
 O         1.526293         0.093518         0.557451
 O        -0.335316         1.132006        -0.042211
 H        -3.028285        -2.583948         1.099235
 H        -3.994420        -1.162632         1.742241
 H        -3.553100        -1.251266         0.090925
 H        -1.233426        -0.341703         1.947502
 H        -2.616113         1.218027        -0.149663
 H        -2.357984        -1.229348        -1.362462
 H        -0.698721        -0.349799        -1.970350
 H        -0.339103        -3.364089        -0.753835
 H         1.231860        -2.784703        -0.126433
 H        -0.151006        -3.201524         1.005292
