19
Iteration:  4828charge 0 multiplicity 1
 C        -3.108706        -1.804055         0.101889
 C        -2.068148        -0.849939         0.616000
 C        -1.707368         0.449740        -0.171958
 C        -1.001914        -0.341667        -1.202929
 C        -0.425091        -1.114581        -0.091991
 C         0.228085        -2.449557         0.077055
 C         0.266495        -0.056472         0.647248
 O         1.277529         0.024645         1.306792
 O        -0.584456         1.060437         0.536289
 H        -2.983353        -2.710444         0.769153
 H        -4.195311        -1.694563         0.199155
 H        -3.032321        -2.164625        -0.969525
 H        -2.208837        -0.647633         1.720107
 H        -2.511985         1.154537        -0.451320
 H        -1.646955        -0.906368        -1.899612
 H        -0.313676         0.287541        -1.837391
 H        -0.234290        -3.047315        -0.665837
 H         1.308356        -2.406802        -0.097699
 H         0.216425        -2.887855         1.095379
