19
Iteration:  4102
 C        -3.138119        -1.824014         0.206865
 C        -1.948357        -0.859214         0.562772
 C        -1.770916         0.394130        -0.195849
 C        -0.916513        -0.445715        -1.256731
 C        -0.491409        -1.151085         0.030756
 C         0.111471        -2.522519        -0.111988
 C         0.278876         0.051990         0.714700
 O         1.313175         0.184885         1.315471
 O        -0.594893         1.061803         0.561723
 H        -2.819840        -2.861214         0.454082
 H        -3.921435        -1.514700         0.984118
 H        -3.602071        -1.746139        -0.782811
 H        -1.797030        -0.927224         1.670319
 H        -2.439423         1.213380        -0.510559
 H        -1.224466        -1.073395        -2.125625
 H        -0.118401         0.287951        -1.738959
 H         0.837741        -2.628686        -0.897414
 H         0.494750        -2.864846         0.806875
 H        -0.716950        -3.211063        -0.243724
