19
Iteration:   965
 C        -3.039555        -1.687550         0.986274
 C        -1.946614        -0.664223         0.870605
 C        -1.778242         0.505814        -0.282149
 C        -1.157712        -0.477353        -1.192533
 C        -0.570208        -1.168114         0.105067
 C        -0.034802        -2.691418        -0.006650
 C         0.325228         0.000420         0.386788
 O         1.468335        -0.039515         0.792603
 O        -0.467712         1.151226         0.186607
 H        -3.189237        -1.890849         2.084835
 H        -3.951928        -1.368480         0.414655
 H        -2.618057        -2.667240         0.579434
 H        -1.750697        -0.151323         1.855337
 H        -2.467678         1.305497        -0.546274
 H        -1.794993        -1.277888        -1.636626
 H        -0.467929        -0.099057        -1.923379
 H         1.061084        -2.645518         0.152942
 H        -0.319833        -3.232403         0.922222
 H        -0.393753        -3.229579        -0.958396
