19
Iteration:  4460charge 0 multiplicity 1
 C        -3.102899        -1.812224        -0.006516
 C        -1.988860        -0.863800         0.644334
 C        -1.759698         0.383109        -0.157772
 C        -0.961313        -0.382994        -1.250994
 C        -0.531837        -1.158993         0.020150
 C         0.176950        -2.517560        -0.040976
 C         0.285969         0.042606         0.718805
 O         1.304437         0.092178         1.353060
 O        -0.554331         1.138695         0.564582
 H        -3.363083        -2.647564         0.716618
 H        -4.124755        -1.447282        -0.170704
 H        -2.705163        -2.390073        -0.882586
 H        -2.139964        -0.955969         1.746477
 H        -2.595791         1.078034        -0.226677
 H        -1.540629        -0.946696        -1.937681
 H        -0.300180         0.267506        -1.771676
 H        -0.389024        -3.375480         0.091653
 H         0.512524        -2.555574        -1.035544
 H         0.913870        -2.656739         0.724359
