19
Iteration:  4206charge 0 multiplicity 1
 C        -3.080750        -1.772057         0.111422
 C        -1.954057        -0.906918         0.659020
 C        -1.712669         0.397838        -0.201709
 C        -0.980463        -0.406603        -1.201834
 C        -0.431215        -1.198054         0.019646
 C         0.103667        -2.548413        -0.010482
 C         0.250391         0.053613         0.704562
 O         1.393820         0.155128         1.112151
 O        -0.690138         1.092616         0.664101
 H        -3.498984        -2.400047         0.947117
 H        -3.981250        -1.192028        -0.288246
 H        -2.627025        -2.477643        -0.694234
 H        -2.145112        -0.854399         1.766725
 H        -2.536944         1.131043        -0.398102
 H        -1.689038        -0.832040        -1.950174
 H        -0.250474         0.176882        -1.713184
 H         1.196219        -2.484927        -0.017031
 H        -0.143482        -3.051790         0.985793
 H        -0.231886        -3.069771        -0.970360
