19
Iteration:  1512
 C        -3.160866        -1.513275         0.222150
 C        -1.947746        -0.742088         0.688667
 C        -1.683693         0.333589        -0.289418
 C        -1.050420        -0.650800        -1.285531
 C        -0.571540        -1.241925         0.113736
 C         0.096197        -2.588071         0.344229
 C         0.295146        -0.056719         0.621718
 O         1.338811         0.227737         1.170477
 O        -0.479438         1.038957         0.263220
 H        -3.031825        -2.569053        -0.187019
 H        -3.902405        -1.375558         0.973333
 H        -3.632399        -0.830799        -0.509840
 H        -1.852842        -0.458732         1.748527
 H        -2.326044         1.115590        -0.645458
 H        -1.749216        -1.358351        -1.747141
 H        -0.298749        -0.167794        -1.996873
 H         0.086654        -2.717885         1.431556
 H        -0.242930        -3.567780        -0.083362
 H         1.166073        -2.487433         0.131091
