19
Iteration:  4459
 C        -3.096344        -1.821666        -0.014516
 C        -1.992359        -0.863977         0.651454
 C        -1.764464         0.382216        -0.153563
 C        -0.963666        -0.385369        -1.250237
 C        -0.536464        -1.154992         0.016802
 C         0.177411        -2.516961        -0.032078
 C         0.295771         0.041914         0.718966
 O         1.297319         0.089026         1.340789
 O        -0.552023         1.139498         0.572607
 H        -3.368172        -2.614693         0.727006
 H        -4.089987        -1.431617        -0.164808
 H        -2.725688        -2.403423        -0.915528
 H        -2.175672        -0.933672         1.761446
 H        -2.559438         1.133796        -0.252710
 H        -1.522037        -0.948019        -1.967884
 H        -0.300194         0.269415        -1.765783
 H        -0.407586        -3.357431         0.091970
 H         0.538096        -2.558820        -1.032476
 H         0.936079        -2.641078         0.723635
