19
Iteration:  3937
 C        -3.068766        -1.684509        -0.007435
 C        -2.014136        -0.921367         0.644485
 C        -1.799760         0.327635        -0.115424
 C        -0.894833        -0.332717        -1.236030
 C        -0.522699        -1.164657         0.105869
 C         0.061347        -2.588079         0.116505
 C         0.315035         0.057079         0.740163
 O         1.475165         0.192342         0.952923
 O        -0.708097         1.000337         0.725684
 H        -3.013261        -2.722183         0.434940
 H        -4.120409        -1.355248         0.053379
 H        -2.935421        -1.955558        -1.102924
 H        -2.182647        -0.762484         1.705399
 H        -2.535808         1.124476        -0.390809
 H        -1.314480        -0.924310        -2.062713
 H        -0.049836         0.215487        -1.747756
 H         0.908939        -2.359760        -0.392279
 H         0.312835        -2.992781         1.059432
 H        -0.569395        -3.329840        -0.334443
