19
Iteration:  3126
 C        -3.054048        -1.719032         0.087520
 C        -1.936170        -0.739949         0.541396
 C        -1.646037         0.471985        -0.357904
 C        -0.926968        -0.546629        -1.359820
 C        -0.491546        -1.100622         0.088135
 C         0.150289        -2.599764         0.306661
 C         0.181306         0.018895         0.739823
 O         1.048481         0.004703         1.606565
 O        -0.453105         1.163085         0.153061
 H        -2.907392        -2.546625         0.819260
 H        -4.140892        -1.354661         0.307816
 H        -3.023313        -2.128328        -0.984143
 H        -2.134276        -0.639574         1.667379
 H        -2.523866         1.213812        -0.642448
 H        -1.506527        -1.410963        -1.782603
 H        -0.087914        -0.168679        -2.031890
 H        -0.516505        -3.496259         0.437394
 H         0.784462        -2.736612        -0.549843
 H         0.891258        -2.489507         1.106163
