19
Iteration:  1240charge 0 multiplicity 1
 C        -3.180935        -1.589238         0.684613
 C        -1.931303        -0.695941         0.781143
 C        -1.705910         0.432543        -0.274706
 C        -1.086530        -0.660287        -1.231033
 C        -0.546567        -1.202284         0.065074
 C         0.070862        -2.611870         0.141526
 C         0.312640         0.011971         0.485250
 O         1.416882         0.047992         0.989950
 O        -0.483269         1.104460         0.205097
 H        -3.586941        -1.680838        -0.404711
 H        -3.165283        -2.613887         1.133458
 H        -3.878107        -0.925096         1.291772
 H        -1.877269        -0.245260         1.852963
 H        -2.470965         1.243471        -0.387812
 H        -1.787884        -1.116457        -1.886133
 H        -0.420032        -0.096477        -1.950009
 H        -0.096954        -3.104816        -0.806513
 H         1.217670        -2.561626         0.319511
 H        -0.362263        -3.221491         0.924499
