19
Iteration:  1524charge 0 multiplicity 1
 C        -3.220629        -1.528861         0.219864
 C        -1.962621        -0.777288         0.686614
 C        -1.648389         0.431709        -0.320983
 C        -0.966978        -0.671896        -1.222344
 C        -0.542034        -1.242786         0.122945
 C         0.132776        -2.524983         0.380864
 C         0.247450         0.041540         0.615735
 O         1.349128         0.074778         1.127965
 O        -0.499559         1.114361         0.263178
 H        -2.915317        -2.586973        -0.071924
 H        -3.893484        -1.821368         1.025354
 H        -3.765715        -1.178954        -0.657819
 H        -2.132305        -0.541805         1.765298
 H        -2.492270         1.021726        -0.540397
 H        -1.784680        -1.264701        -1.749160
 H        -0.183041        -0.480828        -1.991727
 H         0.389413        -2.626485         1.435572
 H        -0.620168        -3.357348         0.044348
 H         1.024781        -2.574990        -0.269341
