19
Iteration:  4280charge 0 multiplicity 1
 C        -2.989081        -1.815963         0.399875
 C        -1.865730        -0.772217         0.595839
 C        -1.707295         0.427368        -0.314303
 C        -1.045819        -0.360999        -1.389860
 C        -0.535217        -1.129891        -0.127656
 C         0.266752        -2.402273        -0.043931
 C         0.225525         0.058411         0.688773
 O         1.176404        -0.164636         1.517649
 O        -0.640570         1.074502         0.435521
 H        -2.684523        -2.813442         0.685477
 H        -3.771480        -1.358682         1.037627
 H        -3.334734        -1.949122        -0.615171
 H        -1.918756        -0.430013         1.655288
 H        -2.457301         1.136824        -0.661844
 H        -1.919747        -0.856724        -1.845900
 H        -0.233717         0.111218        -1.975628
 H         0.837576        -2.509214        -0.938101
 H         0.890661        -2.485496         0.789757
 H        -0.489469        -3.124865        -0.031621
