19
Iteration:   843charge 0 multiplicity 1
 C        -2.978712        -1.628986         0.893723
 C        -1.895511        -0.637779         0.857291
 C        -1.802566         0.440737        -0.234358
 C        -1.242369        -0.632006        -1.190666
 C        -0.548448        -1.190831         0.082280
 C        -0.116443        -2.566985         0.183628
 C         0.370597        -0.006695         0.386034
 O         1.575428        -0.017599         0.561062
 O        -0.522690         1.129039         0.310091
 H        -2.730133        -2.528724         1.411113
 H        -3.676168        -1.161941         1.643456
 H        -3.441635        -1.803641        -0.080227
 H        -1.667610        -0.103793         1.805640
 H        -2.576766         1.205231        -0.551529
 H        -2.083078        -1.229898        -1.453167
 H        -0.661881        -0.399490        -2.097547
 H        -0.659651        -3.203194        -0.493120
 H         0.902840        -2.642373        -0.140840
 H         0.011414        -2.906629         1.299116
