19
Iteration:  4255charge 0 multiplicity 1
 C        -3.053988        -1.843165         0.339221
 C        -1.930745        -0.821520         0.640699
 C        -1.758210         0.470214        -0.230277
 C        -0.995869        -0.381544        -1.284468
 C        -0.529805        -1.200603        -0.089939
 C         0.236514        -2.547769        -0.150778
 C         0.218011         0.032710         0.694777
 O         1.148239         0.066290         1.416742
 O        -0.489752         1.123015         0.462875
 H        -2.999884        -2.741722         0.954077
 H        -3.957074        -1.292788         0.504219
 H        -2.971423        -2.185897        -0.652086
 H        -1.955865        -0.612629         1.703702
 H        -2.500284         1.224765        -0.436441
 H        -1.587734        -1.207536        -1.746030
 H        -0.269829         0.245383        -1.915655
 H         1.185514        -2.559370        -0.797065
 H         0.513152        -2.815101         0.888389
 H        -0.539965        -3.241747        -0.552399
