19
Iteration:  2770charge 0 multiplicity 1
 C        -3.173904        -1.596357        -0.166200
 C        -2.118869        -0.739511         0.551848
 C        -1.571237         0.307826        -0.442156
 C        -0.676569        -0.719561        -1.213570
 C        -0.495967        -1.216679         0.334253
 C         0.057799        -2.612073         0.581501
 C         0.222884         0.031112         0.731588
 O         1.221701         0.339231         1.318373
 O        -0.572773         1.033303         0.239809
 H        -2.705189        -2.457993        -0.628916
 H        -3.953607        -1.978622         0.586588
 H        -3.693804        -1.052517        -0.943538
 H        -2.535023        -0.253949         1.486106
 H        -2.264326         1.053737        -1.006939
 H        -1.188826        -1.364977        -1.940370
 H         0.221303        -0.167131        -1.770079
 H        -0.622626        -3.262130        -0.032056
 H         1.065234        -2.692295         0.197129
 H         0.051359        -2.897695         1.647115
