19
Iteration:  4588charge 0 multiplicity 1
 C        -3.042826        -1.808889         0.128175
 C        -1.917474        -0.849485         0.642119
 C        -1.738364         0.450766        -0.168031
 C        -0.970686        -0.443988        -1.322700
 C        -0.471282        -1.152983        -0.036200
 C         0.078340        -2.546149        -0.024980
 C         0.316215         0.007633         0.668309
 O         1.299531         0.107575         1.354451
 O        -0.673436         1.131588         0.571178
 H        -2.968281        -2.778110         0.582691
 H        -3.997408        -1.414095         0.260217
 H        -3.005123        -1.918570        -0.973100
 H        -1.960913        -0.780748         1.703787
 H        -2.528936         1.143527        -0.486731
 H        -1.595663        -1.049026        -2.007491
 H        -0.140024         0.139098        -1.763122
 H        -0.035176        -3.186715        -0.911878
 H         1.169369        -2.488803         0.290556
 H        -0.317534        -3.031894         0.913215
