19
Iteration:  3898charge 0 multiplicity 1
 C        -3.106709        -1.862183         0.011446
 C        -2.035257        -0.925501         0.528866
 C        -1.740396         0.454761        -0.098271
 C        -1.046468        -0.244476        -1.274140
 C        -0.565610        -1.158636         0.052750
 C         0.171083        -2.418334         0.236454
 C         0.262321        -0.020518         0.753321
 O         1.402010        -0.027099         1.029662
 O        -0.566029         1.087587         0.618385
 H        -2.558635        -2.803392        -0.096601
 H        -3.948582        -2.087594         0.695112
 H        -3.428479        -1.586518        -0.983936
 H        -2.159039        -0.885057         1.656380
 H        -2.482517         1.258144        -0.183095
 H        -1.619921        -0.657243        -2.125474
 H        -0.229471         0.406745        -1.695238
 H         1.301749        -2.262360        -0.169579
 H         0.308671        -2.544416         1.357444
 H        -0.141990        -3.371873        -0.298354
