19
Iteration:  3644
 C        -3.127331        -1.808001         0.138659
 C        -1.970883        -0.898478         0.585612
 C        -1.693913         0.481220        -0.242058
 C        -0.919969        -0.329262        -1.287778
 C        -0.517623        -1.154803        -0.008916
 C         0.178497        -2.443152         0.260890
 C         0.230801        -0.024369         0.639943
 O         1.334126        -0.007670         1.177782
 O        -0.641874         1.053660         0.537324
 H        -4.119927        -1.404056         0.399695
 H        -3.214722        -1.919296        -0.933334
 H        -3.065237        -2.808176         0.629027
 H        -2.026318        -0.593209         1.662303
 H        -2.399723         1.253936        -0.587281
 H        -1.622725        -0.858339        -1.938509
 H        -0.175955         0.359509        -1.770406
 H         1.287541        -2.403913         0.377360
 H        -0.164263        -2.732839         1.242420
 H        -0.042610        -3.173703        -0.510614
