19
Iteration:  1031
 C        -3.120302        -1.553499         0.708758
 C        -1.798973        -0.760925         0.910942
 C        -1.748888         0.487356        -0.069237
 C        -1.251568        -0.549766        -1.223568
 C        -0.629954        -1.188856         0.108922
 C         0.071079        -2.610596         0.129974
 C         0.326375        -0.000348         0.410992
 O         1.450899         0.011096         0.819495
 O        -0.433393         1.105348         0.095236
 H        -3.448362        -2.332854         1.489268
 H        -4.004371        -0.870894         0.755563
 H        -3.254199        -2.028537        -0.336266
 H        -1.672228        -0.796407         2.016565
 H        -2.515788         1.215794        -0.145858
 H        -1.951928        -1.406930        -1.431148
 H        -0.764841        -0.255405        -2.119505
 H         0.056982        -3.117817        -0.850155
 H         1.165278        -2.475449         0.408398
 H        -0.363486        -3.332473         0.878007
