19
Iteration:  4922
 C        -3.022437        -1.802928        -0.030163
 C        -1.956259        -0.900258         0.604599
 C        -1.758742         0.454011        -0.155299
 C        -0.966236        -0.337760        -1.212594
 C        -0.507330        -1.140148         0.023485
 C         0.153540        -2.513605         0.157928
 C         0.222547        -0.041763         0.710458
 O         1.358985         0.013858         1.174055
 O        -0.669780         1.158491         0.588848
 H        -3.126183        -2.742838         0.481228
 H        -3.951296        -1.246517         0.216566
 H        -3.082451        -1.913849        -1.120389
 H        -2.080466        -0.783560         1.658592
 H        -2.565592         1.147635        -0.412226
 H        -1.404823        -1.049916        -1.917638
 H        -0.182460         0.110707        -1.820108
 H        -0.558794        -3.272504        -0.241742
 H         1.146098        -2.617998        -0.376967
 H         0.483141        -2.658591         1.200912
