19
Iteration:   641charge 0 multiplicity 1
 C        -3.019887        -1.589417         1.039717
 C        -1.868872        -0.658859         0.869274
 C        -1.778227         0.565982        -0.141843
 C        -1.339014        -0.531280        -1.176048
 C        -0.589475        -1.201205         0.091051
 C         0.018129        -2.632369         0.242110
 C         0.365630        -0.072210         0.290392
 O         1.572282        -0.073046         0.418867
 O        -0.509834         1.110853         0.217702
 H        -2.874194        -2.084420         2.022716
 H        -4.009792        -1.134508         1.009160
 H        -2.862735        -2.399912         0.306788
 H        -1.640285        -0.187152         1.865718
 H        -2.675541         1.221090        -0.218407
 H        -2.310578        -1.068687        -1.374867
 H        -0.653495        -0.265087        -2.042665
 H        -0.684878        -3.228340         0.912254
 H        -0.035715        -3.128944        -0.802077
 H         0.989718        -2.559241         0.567117
