19
Iteration:   125charge 0 multiplicity 1
 C        -2.975381        -1.496172         1.546397
 C        -1.672635        -0.657887         1.119443
 C        -1.772048         0.519372         0.134152
 C        -1.478244        -0.578841        -1.004267
 C        -0.640216        -1.226728         0.062697
 C        -0.024355        -2.646714        -0.152805
 C         0.312412        -0.099469         0.079062
 O         1.523185        -0.069448         0.043818
 O        -0.459936         1.131007         0.122874
 H        -2.859747        -1.898777         2.598068
 H        -3.798264        -0.759066         1.431335
 H        -3.198499        -2.281907         0.779365
 H        -1.128537        -0.437671         2.032769
 H        -2.518391         1.334910         0.095233
 H        -2.284740        -1.274784        -1.488561
 H        -0.980433        -0.117518        -1.930724
 H        -0.631933        -3.311905        -0.734906
 H         0.906602        -2.452181        -0.710819
 H         0.185515        -3.213997         0.840047
