19
Iteration:  2616
 C        -3.349103        -1.556118         0.256013
 C        -1.965886        -0.773011         0.441290
 C        -1.440132         0.384981        -0.589424
 C        -0.646206        -0.738936        -1.422040
 C        -0.529095        -1.249488         0.128552
 C         0.222565        -2.532864         0.434216
 C         0.198127         0.039490         0.750450
 O         0.921548         0.135792         1.662825
 O        -0.509200         1.138031         0.100968
 H        -3.406745        -2.031860        -0.675801
 H        -3.513886        -2.317233         1.034755
 H        -4.047180        -0.791000         0.343665
 H        -1.814678        -0.529197         1.525860
 H        -2.146523         1.211086        -0.987215
 H        -1.491515        -1.329508        -1.910118
 H         0.283231        -0.517395        -1.943786
 H        -0.153710        -3.425054        -0.210699
 H         1.232294        -2.397268         0.124454
 H         0.255571        -2.800824         1.536954
