19
Iteration:  1555charge 0 multiplicity 1
 C        -3.140894        -1.717312         0.288503
 C        -2.093723        -0.671617         0.576455
 C        -1.713534         0.428699        -0.484134
 C        -0.856693        -0.532259        -1.248202
 C        -0.623746        -1.178912         0.188531
 C         0.042489        -2.471095         0.423920
 C         0.260708        -0.002513         0.691322
 O         1.420636        -0.048317         1.065421
 O        -0.486533         1.100866         0.345899
 H        -2.532925        -2.649451        -0.029234
 H        -3.677468        -2.008237         1.165433
 H        -4.033086        -1.491932        -0.331155
 H        -2.321955        -0.115947         1.489915
 H        -2.440361         1.181170        -0.733870
 H        -1.532460        -1.129742        -1.867208
 H         0.049209        -0.169120        -1.818572
 H         0.943142        -2.230125         0.935651
 H        -0.436470        -3.259947         0.965449
 H         0.233512        -2.890214        -0.554777
