19
Iteration:  2936charge 0 multiplicity 1
 C        -3.145377        -1.654536        -0.101598
 C        -2.044839        -0.815669         0.475961
 C        -1.538599         0.415792        -0.509907
 C        -0.737395        -0.697262        -1.252298
 C        -0.600990        -1.210075         0.340910
 C         0.076722        -2.509036         0.489457
 C         0.208311         0.034465         0.808892
 O         1.296109         0.198850         1.304446
 O        -0.652080         1.087133         0.332615
 H        -4.114824        -1.030040        -0.136481
 H        -2.894691        -1.909480        -1.141725
 H        -3.300460        -2.586080         0.518704
 H        -2.290364        -0.413274         1.483681
 H        -2.267377         1.065873        -0.880669
 H        -1.414040        -1.343133        -1.843383
 H         0.096582        -0.237623        -1.879475
 H        -0.449539        -3.320517         0.106736
 H         1.058194        -2.606325         0.090870
 H         0.342226        -2.617052         1.524329
