19
Iteration:   428
 C        -3.123788        -1.474687         1.179562
 C        -1.804154        -0.634099         1.086822
 C        -1.827530         0.456463         0.000180
 C        -1.511391        -0.581937        -1.081207
 C        -0.564274        -1.198663         0.066111
 C         0.116194        -2.631306         0.097673
 C         0.422395        -0.069412         0.098303
 O         1.598197         0.009968         0.387330
 O        -0.466293         1.045887         0.026096
 H        -3.367500        -1.711559         2.264529
 H        -3.953166        -0.902319         0.765518
 H        -3.136444        -2.442689         0.641158
 H        -1.496477        -0.419439         2.134333
 H        -2.564632         1.259174        -0.094737
 H        -2.169237        -1.476631        -1.239665
 H        -0.948571        -0.217829        -1.915638
 H        -0.196120        -2.978278         1.048345
 H        -0.330272        -3.288114        -0.613076
 H         1.265645        -2.773844         0.023060
