19
Iteration:  1442charge 0 multiplicity 1
 C        -3.065925        -1.692749         0.577576
 C        -2.058219        -0.538179         0.578386
 C        -1.656923         0.459364        -0.460542
 C        -0.983732        -0.603745        -1.307851
 C        -0.541388        -1.198323         0.091725
 C         0.065593        -2.532448         0.295178
 C         0.238738        -0.026854         0.617907
 O         1.306798        -0.014607         1.184423
 O        -0.475406         1.053900         0.230430
 H        -2.495689        -2.470368         1.107593
 H        -4.121576        -1.394367         0.905732
 H        -3.257591        -2.134647        -0.430812
 H        -2.213791        -0.014369         1.526330
 H        -2.320060         1.298213        -0.827272
 H        -1.525010        -1.375040        -1.875960
 H        -0.261426        -0.003594        -1.874901
 H        -0.445531        -3.341298        -0.265261
 H         1.071026        -2.463798         0.065782
 H        -0.020904        -2.797780         1.358844
