19
Iteration:  4945
 C        -3.014341        -1.799271         0.200374
 C        -1.995458        -0.828471         0.600110
 C        -1.705624         0.480411        -0.256547
 C        -0.957889        -0.378912        -1.316976
 C        -0.538500        -1.141942         0.004518
 C         0.242757        -2.410018         0.037413
 C         0.195659        -0.013037         0.684277
 O         1.218817        -0.079723         1.325516
 O        -0.623763         1.041851         0.545975
 H        -2.995840        -2.710887         0.815548
 H        -4.022357        -1.345773         0.214747
 H        -2.787705        -1.966817        -0.896188
 H        -2.064049        -0.526406         1.645703
 H        -2.415141         1.321787        -0.341846
 H        -1.567853        -0.819744        -2.106073
 H        -0.253405         0.184672        -1.929478
 H        -0.263794        -3.173790        -0.568573
 H         1.328497        -2.290385        -0.261695
 H         0.480222        -2.641659         1.103179
