19
Iteration:  2086
 C        -2.987686        -1.669003        -0.070134
 C        -1.979613        -0.728758         0.515710
 C        -1.527626         0.460058        -0.555663
 C        -0.785019        -0.639740        -1.331145
 C        -0.527865        -1.217741         0.186838
 C        -0.042463        -2.572297         0.608907
 C         0.230374        -0.039206         0.747686
 O         1.064086         0.124793         1.603379
 O        -0.500230         1.175828         0.127025
 H        -2.789528        -1.968247        -1.121624
 H        -3.243991        -2.589960         0.384881
 H        -3.973324        -1.144707        -0.115191
 H        -2.217958        -0.339190         1.517112
 H        -2.321138         1.071851        -0.899041
 H        -1.429849        -1.408561        -1.870643
 H         0.073176        -0.424592        -1.954211
 H        -0.968504        -3.208837         0.781944
 H         0.498969        -3.020672        -0.185465
 H         0.476863        -2.550198         1.601263
