19
Iteration:  2953charge 0 multiplicity 1
 C        -3.112166        -1.718424        -0.088115
 C        -2.098389        -0.681949         0.416462
 C        -1.603288         0.410554        -0.466068
 C        -0.734274        -0.620775        -1.213664
 C        -0.531927        -1.201050         0.143752
 C         0.132634        -2.522068         0.637145
 C         0.142744         0.041661         0.747048
 O         1.245430         0.099023         1.185704
 O        -0.608240         1.112966         0.484220
 H        -3.969806        -1.241182        -0.516652
 H        -2.774349        -2.430181        -0.902071
 H        -3.457278        -2.287197         0.747073
 H        -2.354658        -0.411383         1.429795
 H        -2.186120         1.187019        -1.103115
 H        -1.260091        -1.314542        -1.842879
 H         0.217875        -0.463766        -1.704427
 H        -0.395303        -3.452308         0.145160
 H         1.159121        -2.473013         0.193257
 H         0.162947        -2.655677         1.766790
