19
Iteration:   400
 C        -2.951097        -1.447876         1.215712
 C        -1.749093        -0.664784         1.017352
 C        -1.663558         0.436784        -0.154880
 C        -1.493009        -0.645127        -1.159341
 C        -0.696245        -1.250861         0.059751
 C         0.037858        -2.521983         0.147207
 C         0.337846        -0.025837         0.277945
 O         1.533645        -0.051167         0.230056
 O        -0.501063         1.099117         0.251242
 H        -3.354336        -1.209651         2.166684
 H        -3.810849        -1.327905         0.479628
 H        -2.670875        -2.510214         1.223044
 H        -1.293063        -0.378663         1.971594
 H        -2.509057         1.087766        -0.335240
 H        -2.323462        -1.311774        -1.425864
 H        -1.093918        -0.629265        -2.259494
 H        -0.698201        -3.220157         0.752705
 H         0.153121        -2.932330        -0.913342
 H         0.907088        -2.560156         0.797458
