19
Iteration:  1836charge 0 multiplicity 1
 C        -3.225501        -1.557616         0.002982
 C        -2.008530        -0.754892         0.523495
 C        -1.621285         0.376799        -0.488137
 C        -0.791381        -0.709221        -1.296191
 C        -0.554996        -1.175719         0.255449
 C         0.114561        -2.473029         0.571479
 C         0.190582        -0.014843         0.725601
 O         1.206091         0.109500         1.351416
 O        -0.460814         1.053646         0.199039
 H        -2.849340        -2.472732        -0.416065
 H        -3.854756        -1.830027         0.836670
 H        -3.769071        -1.019644        -0.831957
 H        -2.131786        -0.348750         1.550633
 H        -2.201477         1.226227        -0.789000
 H        -1.479702        -1.381854        -1.790061
 H        -0.018953        -0.292659        -1.920717
 H         0.909128        -2.368942         1.352453
 H        -0.665484        -3.088477         1.011708
 H         0.583006        -2.993815        -0.301870
