19
Iteration:  2569charge 0 multiplicity 1
 C        -3.095791        -1.708858         0.109714
 C        -2.002433        -0.664867         0.532744
 C        -1.514550         0.452467        -0.655022
 C        -0.726182        -0.669616        -1.373351
 C        -0.583030        -1.203571         0.186251
 C         0.041756        -2.504699         0.580444
 C         0.159857        -0.027597         0.684025
 O         1.058031         0.089513         1.538420
 O        -0.495896         1.096922         0.208078
 H        -2.636867        -2.428484        -0.607964
 H        -3.508884        -2.347412         0.885208
 H        -3.836782        -1.048271        -0.392429
 H        -2.163651        -0.176623         1.457277
 H        -2.084485         1.238052        -1.043243
 H        -1.405789        -1.284894        -2.011462
 H         0.194142        -0.288215        -1.781441
 H        -0.533965        -3.331636         0.378892
 H         0.897476        -2.638558        -0.121586
 H         0.408088        -2.417210         1.565895
