19
Iteration:  1160
 C        -3.103706        -1.594613         0.600482
 C        -1.946732        -0.669311         0.882454
 C        -1.774513         0.477848        -0.239274
 C        -1.275001        -0.620781        -1.164991
 C        -0.568757        -1.153702         0.122508
 C         0.031151        -2.553366         0.124181
 C         0.392293        -0.016432         0.455003
 O         1.496768        -0.017194         0.972930
 O        -0.412131         1.100581         0.129625
 H        -2.653477        -2.505252         0.203705
 H        -3.426048        -1.934431         1.573249
 H        -3.932826        -1.362084        -0.078109
 H        -1.999545        -0.443251         1.965942
 H        -2.513786         1.229074        -0.474027
 H        -2.092923        -1.383972        -1.341495
 H        -0.730970        -0.355073        -2.052783
 H         1.019543        -2.501836         0.664604
 H        -0.573411        -3.295645         0.535063
 H         0.193528        -2.875195        -0.972130
