19
Iteration:  2822
 C        -3.124626        -1.691430         0.214019
 C        -2.020062        -0.656892         0.441961
 C        -1.546929         0.439035        -0.639624
 C        -0.700855        -0.672400        -1.327868
 C        -0.442299        -1.207148         0.034816
 C         0.073266        -2.505276         0.517640
 C         0.198537        -0.013434         0.750532
 O         0.984638         0.166147         1.625578
 O        -0.503971         1.021913         0.134359
 H        -2.784325        -2.717232         0.437022
 H        -4.066548        -1.481526         0.898944
 H        -3.527723        -1.677675        -0.836254
 H        -2.055479        -0.389763         1.470388
 H        -2.255689         1.188753        -1.209077
 H        -1.413054        -1.316135        -1.865291
 H         0.092406        -0.264355        -1.901820
 H        -0.376969        -3.402582         0.039431
 H         1.117746        -2.492711         0.355512
 H         0.016441        -2.424561         1.600750
