19
Iteration:  1949
 C        -3.140248        -1.626653         0.078187
 C        -2.076414        -0.580234         0.461642
 C        -1.572839         0.422787        -0.601331
 C        -0.729387        -0.786934        -1.345525
 C        -0.590898        -1.227449         0.144386
 C         0.125359        -2.483970         0.573745
 C         0.179152        -0.006344         0.734326
 O         1.074712         0.105962         1.537733
 O        -0.434266         1.038997         0.220427
 H        -3.408255        -1.654737        -0.984398
 H        -2.925114        -2.607479         0.476417
 H        -4.004879        -1.258563         0.521849
 H        -2.290322        -0.123450         1.447204
 H        -2.118286         1.260431        -1.149338
 H        -1.473344        -1.300321        -1.999336
 H         0.141563        -0.492006        -1.964146
 H         0.580746        -3.027395        -0.262431
 H         1.022433        -2.045016         1.198402
 H        -0.426635        -3.268499         1.090654
