19
Iteration:  4040
 C        -3.002726        -1.876492         0.441561
 C        -1.872041        -0.842944         0.669315
 C        -1.705018         0.580364        -0.284216
 C        -1.097073        -0.348602        -1.407285
 C        -0.483529        -1.087074        -0.108269
 C         0.313524        -2.387465        -0.090817
 C         0.211348        -0.034447         0.689361
 O         1.046301        -0.175032         1.570514
 O        -0.516621         1.111187         0.295820
 H        -3.064027        -2.696287         1.175648
 H        -4.047374        -1.431199         0.666453
 H        -3.116270        -2.270261        -0.576052
 H        -1.671372        -0.805802         1.795907
 H        -2.403933         1.388696        -0.381435
 H        -1.843665        -0.982653        -1.870539
 H        -0.557019         0.252594        -2.106103
 H         1.153230        -2.466008        -0.875625
 H         0.721940        -2.503713         0.941041
 H        -0.338219        -3.169107        -0.493512
