19
Iteration:  1360
 C        -3.253613        -1.553282         0.450322
 C        -1.944314        -0.762543         0.718848
 C        -1.691646         0.453693        -0.305821
 C        -1.011334        -0.702197        -1.182616
 C        -0.615207        -1.247803         0.150892
 C         0.121008        -2.575130         0.241349
 C         0.297201         0.025446         0.593387
 O         1.421647         0.152915         0.996737
 O        -0.442382         1.089954         0.259478
 H        -4.105219        -1.008591         0.910650
 H        -3.590825        -1.480355        -0.550336
 H        -3.082909        -2.594125         0.721967
 H        -2.115286        -0.461443         1.786063
 H        -2.473677         1.128082        -0.690350
 H        -1.722609        -1.388037        -1.578851
 H        -0.378087        -0.505768        -2.091863
 H         1.179970        -2.493162         0.438151
 H        -0.479015        -3.422635         0.768345
 H        -0.025608        -2.975076        -0.770396
