19
Iteration:  2480
 C        -3.272505        -1.609104        -0.073885
 C        -2.124503        -0.776786         0.360916
 C        -1.529100         0.293337        -0.656792
 C        -0.616870        -0.633080        -1.225846
 C        -0.518170        -1.214525         0.231883
 C         0.043921        -2.493958         0.740016
 C         0.180889         0.085263         0.739918
 O         1.303343         0.072761         1.288607
 O        -0.597967         1.108658         0.394395
 H        -3.399524        -1.794247        -1.171086
 H        -3.241081        -2.630351         0.333816
 H        -4.224025        -1.035486         0.235671
 H        -2.203298        -0.343290         1.330756
 H        -2.221864         1.092018        -1.034981
 H        -1.228167        -1.212692        -1.888158
 H         0.342305        -0.156174        -1.668693
 H        -0.173665        -3.320661         0.139825
 H         1.162478        -2.367458         0.723663
 H        -0.375749        -2.611803         1.723663
