19
Iteration:  4039charge 0 multiplicity 1
 C        -2.996292        -1.879296         0.432250
 C        -1.877059        -0.848684         0.680930
 C        -1.709529         0.587834        -0.288500
 C        -1.102346        -0.354403        -1.402087
 C        -0.485014        -1.086820        -0.115512
 C         0.318231        -2.390341        -0.086372
 C         0.210383        -0.039720         0.689437
 O         1.050897        -0.176828         1.572047
 O        -0.514369         1.120830         0.296803
 H        -3.085258        -2.675162         1.202282
 H        -4.050868        -1.406641         0.672332
 H        -3.135133        -2.302605        -0.576475
 H        -1.649966        -0.812770         1.808615
 H        -2.420728         1.392983        -0.406573
 H        -1.837169        -0.957111        -1.912111
 H        -0.548933         0.261173        -2.129367
 H         1.147804        -2.464405        -0.859582
 H         0.706243        -2.515125         0.920400
 H        -0.328575        -3.152639        -0.489608
