19
Iteration:  4937
 C        -3.024735        -1.722336         0.103861
 C        -1.933145        -0.801565         0.557896
 C        -1.795655         0.452429        -0.185399
 C        -0.920676        -0.417508        -1.323307
 C        -0.557257        -1.159942         0.045249
 C         0.196376        -2.420608         0.090582
 C         0.227838         0.021565         0.642209
 O         1.266488        -0.076867         1.291868
 O        -0.639268         1.051608         0.571013
 H        -2.699860        -2.614615         0.726593
 H        -4.105771        -1.439583         0.218998
 H        -2.800974        -2.218853        -0.906212
 H        -1.950938        -0.772137         1.727573
 H        -2.655901         1.136350        -0.283487
 H        -1.616596        -0.854097        -2.017641
 H        -0.143898         0.240659        -1.705477
 H        -0.181282        -3.293933        -0.385406
 H         1.098590        -2.130397        -0.426244
 H         0.388093        -2.738286         1.126381
