19
Iteration:  3630charge 0 multiplicity 1
 C        -3.037910        -1.776817         0.162591
 C        -1.945654        -0.800575         0.528472
 C        -1.685266         0.449192        -0.220274
 C        -0.979767        -0.383793        -1.373538
 C        -0.545249        -1.162926        -0.018806
 C         0.159078        -2.447327         0.200223
 C         0.208076         0.016517         0.662820
 O         1.228757        -0.036140         1.275494
 O        -0.565504         1.110737         0.539241
 H        -3.865973        -1.608163         0.859039
 H        -3.129264        -1.839394        -0.865620
 H        -2.669070        -2.781294         0.347844
 H        -1.873391        -0.832889         1.637959
 H        -2.517825         1.138255        -0.286531
 H        -1.775132        -0.952851        -1.936727
 H        -0.230749        -0.231668        -2.058621
 H         1.238930        -2.145421         0.136476
 H        -0.096860        -2.907097         1.249286
 H        -0.089560        -3.421092        -0.367672
