19
Iteration:  3044
 C        -3.187469        -1.668724         0.179026
 C        -2.015250        -0.770958         0.496499
 C        -1.568114         0.387695        -0.484911
 C        -0.727359        -0.644924        -1.277744
 C        -0.509386        -1.155033         0.170521
 C         0.091888        -2.541601         0.237778
 C         0.206204         0.009254         0.790070
 O         1.157924         0.221846         1.477828
 O        -0.552018         1.059531         0.260435
 H        -2.987460        -2.488955        -0.622032
 H        -3.493629        -2.158275         1.117282
 H        -4.102711        -1.096059        -0.155491
 H        -2.055164        -0.361208         1.474950
 H        -2.399106         0.960828        -0.729821
 H        -1.263023        -1.259466        -2.005960
 H         0.236542        -0.331036        -1.723199
 H        -0.426974        -3.136108        -0.518457
 H         1.140153        -2.492767        -0.047949
 H        -0.143868        -3.181488         1.117212
