19
Iteration:  3181charge 0 multiplicity 1
 C        -3.162423        -1.716524         0.045690
 C        -1.994137        -0.816322         0.401643
 C        -1.577121         0.396505        -0.440167
 C        -0.754540        -0.476477        -1.237552
 C        -0.430703        -1.161309         0.153958
 C         0.030897        -2.638110         0.351767
 C         0.193823         0.030142         0.797153
 O         1.344575         0.187610         1.220140
 O        -0.728539         1.115610         0.560465
 H        -3.697444        -2.033561         0.948650
 H        -3.833744        -1.135178        -0.742456
 H        -2.881493        -2.727446        -0.321440
 H        -2.261926        -0.630604         1.484969
 H        -2.278398         1.021006        -1.110493
 H        -1.302400        -1.109813        -1.940724
 H         0.223972        -0.054791        -1.710995
 H        -0.803357        -3.315616         0.044113
 H         0.793806        -2.891220        -0.290872
 H         0.202858        -3.040187         1.335381
