19
Iteration:   124charge 0 multiplicity 1
 C        -2.970701        -1.485569         1.536053
 C        -1.668931        -0.659783         1.113593
 C        -1.769626         0.517286         0.131055
 C        -1.493257        -0.584580        -0.990556
 C        -0.639851        -1.229851         0.063823
 C        -0.030516        -2.648765        -0.161336
 C         0.322309        -0.096794         0.080946
 O         1.534670        -0.069060         0.046130
 O        -0.469738         1.133118         0.122411
 H        -2.878953        -1.887914         2.588794
 H        -3.784401        -0.782852         1.431045
 H        -3.196841        -2.290036         0.794628
 H        -1.141686        -0.436766         2.023810
 H        -2.528348         1.343399         0.123671
 H        -2.284494        -1.271810        -1.471388
 H        -1.009141        -0.151259        -1.903533
 H        -0.585184        -3.293513        -0.757904
 H         0.913951        -2.446552        -0.677960
 H         0.161206        -3.215977         0.863586
