19
Iteration:  4025
 C        -3.015039        -1.858862         0.392565
 C        -1.865853        -0.901009         0.669060
 C        -1.734282         0.523256        -0.276009
 C        -1.158713        -0.356121        -1.315836
 C        -0.498535        -1.153210        -0.156254
 C         0.295049        -2.441495        -0.092574
 C         0.224357        -0.034519         0.657947
 O         1.062039        -0.158943         1.497120
 O        -0.472181         1.268319         0.389308
 H        -3.049735        -2.512585         1.301588
 H        -3.901735        -1.154180         0.222779
 H        -2.833936        -2.544990        -0.483712
 H        -1.876033        -0.634414         1.747357
 H        -2.540777         1.239046        -0.606696
 H        -1.900274        -0.880114        -1.958801
 H        -0.187572         0.001476        -1.851227
 H         1.220543        -2.264958        -0.531747
 H         0.531827        -2.647402         0.910722
 H        -0.184102        -3.350538        -0.427024
