19
Iteration:  1109charge 0 multiplicity 1
 C        -3.149335        -1.647030         0.780393
 C        -1.857084        -0.740943         0.779990
 C        -1.773905         0.416407        -0.176641
 C        -1.109496        -0.491784        -1.317018
 C        -0.469528        -1.142974         0.003326
 C        -0.103828        -2.631386         0.285966
 C         0.371967         0.006461         0.446698
 O         1.549733         0.028216         0.754453
 O        -0.544812         1.087878         0.293380
 H        -3.072886        -2.737483         0.372797
 H        -3.714635        -1.430295         1.696826
 H        -3.911206        -1.166826         0.048041
 H        -1.952587        -0.335566         1.802943
 H        -2.632230         1.033743        -0.428954
 H        -1.774698        -1.120529        -1.913501
 H        -0.267956        -0.020194        -1.848078
 H        -0.532874        -3.112399         1.167799
 H        -0.368200        -3.202470        -0.707692
 H         0.946976        -2.652581         0.436118
