19
Iteration:  4006
 C        -3.019238        -1.807050         0.310418
 C        -1.944213        -0.769581         0.651305
 C        -1.710114         0.476693        -0.176599
 C        -1.011189        -0.390966        -1.347172
 C        -0.460419        -1.097854        -0.056449
 C         0.242117        -2.447723        -0.055209
 C         0.219835         0.004720         0.648823
 O         1.144102        -0.063585         1.401981
 O        -0.588428         1.038335         0.425607
 H        -3.156512        -2.291461         1.289348
 H        -3.986584        -1.274029        -0.013284
 H        -2.759264        -2.620875        -0.370627
 H        -1.623699        -0.653558         1.727553
 H        -2.503149         1.218777        -0.189158
 H        -1.702519        -1.022294        -1.834769
 H        -0.517459         0.155548        -2.162774
 H         1.237423        -2.243524        -0.584278
 H         0.422009        -3.029074         0.851416
 H        -0.421121        -3.117630        -0.602736
