19
Iteration:  2168
 C        -3.234726        -1.580709         0.092428
 C        -2.048984        -0.705872         0.440934
 C        -1.495732         0.375716        -0.675898
 C        -0.716081        -0.727075        -1.305049
 C        -0.482446        -1.179542         0.164056
 C         0.139888        -2.478648         0.531846
 C         0.165847         0.067925         0.762002
 O         1.046070         0.026322         1.637531
 O        -0.499490         1.082722         0.138811
 H        -3.084080        -2.145246        -0.848203
 H        -3.389928        -2.258015         1.032624
 H        -4.149317        -0.944608        -0.030734
 H        -2.375808        -0.292438         1.411584
 H        -2.121085         1.174865        -1.161255
 H        -1.324088        -1.377432        -1.867251
 H         0.215674        -0.445506        -1.823437
 H        -0.214119        -3.252420        -0.103026
 H         1.228442        -2.448678         0.311856
 H         0.216868        -2.679468         1.582504
