19
Iteration:  2350
 C        -3.131287        -1.651605         0.149793
 C        -2.014570        -0.618198         0.405823
 C        -1.501136         0.342328        -0.607715
 C        -0.653924        -0.702994        -1.357559
 C        -0.490568        -1.163095         0.148361
 C         0.008597        -2.458365         0.490689
 C         0.110349         0.006578         0.822602
 O         1.018307         0.066681         1.631094
 O        -0.484644         1.068039         0.117595
 H        -3.009287        -2.096964        -0.805588
 H        -3.023128        -2.344712         0.911477
 H        -4.171437        -1.354712         0.247477
 H        -2.135368        -0.056358         1.353196
 H        -2.132859         1.195842        -1.055732
 H        -1.168773        -1.430389        -1.939072
 H         0.266787        -0.465996        -2.000880
 H        -0.804095        -3.169198         0.502065
 H         0.888308        -2.745941        -0.240675
 H         0.501108        -2.403802         1.474735
