19
Iteration:  4605charge 0 multiplicity 1
 C        -3.128624        -1.795495         0.103319
 C        -1.970928        -0.941169         0.550805
 C        -1.712395         0.385930        -0.225415
 C        -0.868467        -0.288832        -1.218991
 C        -0.463760        -1.149072         0.100476
 C         0.096554        -2.562378         0.041580
 C         0.248767         0.042499         0.781221
 O         1.348919         0.207222         1.201148
 O        -0.634736         0.999848         0.558555
 H        -3.229128        -2.760858         0.682093
 H        -4.135130        -1.192572         0.153048
 H        -3.097032        -2.203139        -0.936180
 H        -1.965622        -0.796866         1.698968
 H        -2.508324         1.123802        -0.385599
 H        -1.563030        -0.924514        -1.798743
 H        -0.134721         0.298205        -1.779903
 H        -0.261568        -2.904300        -0.953561
 H         1.157564        -2.657129        -0.052570
 H        -0.412049        -3.250575         0.679410
