19
Iteration:  1766charge 0 multiplicity 1
 C        -3.163414        -1.670714         0.051012
 C        -2.096247        -0.666461         0.568922
 C        -1.606425         0.455926        -0.438109
 C        -0.753388        -0.637951        -1.229770
 C        -0.556196        -1.202368         0.281540
 C        -0.069463        -2.686406         0.546162
 C         0.266218         0.060062         0.659697
 O         1.324138         0.155274         1.223619
 O        -0.500028         1.130677         0.223973
 H        -3.311549        -2.471657         0.890569
 H        -4.242394        -1.241498        -0.060659
 H        -2.759190        -2.185100        -0.875541
 H        -2.255591        -0.402884         1.662393
 H        -2.324747         1.098292        -1.038919
 H        -1.246811        -1.446467        -1.851700
 H         0.216552        -0.295204        -1.688660
 H        -0.597403        -3.387140         1.195776
 H        -0.187599        -3.126559        -0.463196
 H         0.960397        -2.592401         0.839351
