19
Iteration:  2817charge 0 multiplicity 1
 C        -3.179270        -1.686266         0.188229
 C        -2.009010        -0.655967         0.427873
 C        -1.505264         0.389624        -0.633252
 C        -0.744933        -0.665050        -1.337667
 C        -0.427372        -1.172135         0.064591
 C         0.080615        -2.528303         0.522208
 C         0.233067        -0.022118         0.742737
 O         1.014551         0.193719         1.626869
 O        -0.552241         1.048106         0.146218
 H        -2.807808        -2.718120         0.264161
 H        -3.968867        -1.518198         0.819973
 H        -3.534539        -1.587194        -0.828920
 H        -1.979455        -0.311060         1.522025
 H        -2.257476         0.974456        -1.029204
 H        -1.447129        -1.310279        -1.889829
 H         0.161208        -0.349465        -1.953676
 H        -0.449708        -3.350532         0.043092
 H         1.270298        -2.733830         0.396603
 H        -0.077038        -2.537686         1.636309
