19
Iteration:   489
 C        -2.975942        -1.520201         1.310838
 C        -1.838281        -0.572711         0.996185
 C        -1.846457         0.376487        -0.227993
 C        -1.424401        -0.584365        -1.294022
 C        -0.574209        -1.152907         0.025569
 C        -0.031105        -2.669913         0.158783
 C         0.400347        -0.022370         0.281720
 O         1.576920        -0.014394         0.462980
 O        -0.474375         1.064706         0.130782
 H        -2.599290        -2.524597         1.571239
 H        -3.473406        -1.157817         2.210428
 H        -3.686399        -1.567960         0.474003
 H        -1.403788        -0.035116         1.844889
 H        -2.532529         1.266709        -0.346621
 H        -2.122172        -1.272252        -1.755265
 H        -0.910137        -0.274325        -2.218651
 H         1.074337        -2.864974         0.493109
 H        -0.693037        -3.130236         0.970895
 H        -0.114130        -3.155917        -0.752849
