19
Iteration:  1544
 C        -3.193543        -1.759189         0.261878
 C        -2.065602        -0.644272         0.602969
 C        -1.685175         0.438932        -0.413965
 C        -0.907194        -0.581902        -1.218250
 C        -0.553444        -1.119545         0.232478
 C         0.109398        -2.524292         0.404421
 C         0.273694         0.023485         0.625779
 O         1.394408        -0.103814         1.082687
 O        -0.529794         1.193963         0.310970
 H        -3.133883        -2.822105        -0.153332
 H        -3.741159        -1.826341         1.164853
 H        -3.761307        -1.222007        -0.521018
 H        -2.264033        -0.346896         1.633571
 H        -2.319973         1.103356        -0.973319
 H        -1.447503        -1.387700        -1.704365
 H        -0.159138        -0.147737        -1.949823
 H         0.900172        -2.415768         1.111235
 H        -0.580076        -3.277605         0.711428
 H         0.627426        -2.758147        -0.519264
