19
Iteration:   613charge 0 multiplicity 1
 C        -3.080191        -1.442464         1.129149
 C        -1.793888        -0.693249         0.948047
 C        -1.784386         0.404417        -0.209030
 C        -1.301082        -0.703693        -1.244250
 C        -0.589159        -1.210512        -0.000358
 C        -0.009874        -2.548279         0.138679
 C         0.315682        -0.045558         0.309886
 O         1.519675         0.033473         0.435117
 O        -0.432277         1.053903         0.317804
 H        -3.121346        -2.330568         1.789349
 H        -3.835026        -0.735181         1.516448
 H        -3.241193        -1.803166         0.109106
 H        -1.584438        -0.213317         1.942258
 H        -2.569691         1.120535        -0.357895
 H        -2.223304        -1.263138        -1.409818
 H        -0.731003        -0.529956        -2.112155
 H        -0.835480        -3.243577         0.249557
 H         0.636158        -2.708096        -0.678900
 H         0.723378        -2.485887         1.049306
