19
Iteration:   436charge 0 multiplicity 1
 C        -3.142467        -1.453002         1.168103
 C        -1.797039        -0.629327         1.096610
 C        -1.752095         0.367707        -0.001423
 C        -1.548431        -0.564133        -1.075295
 C        -0.546719        -1.189152         0.102480
 C         0.093521        -2.622806         0.070992
 C         0.442507        -0.071056         0.161527
 O         1.620295         0.036081         0.406089
 O        -0.506263         1.023272        -0.040483
 H        -3.332542        -1.953282         2.168277
 H        -4.002281        -0.897198         0.882370
 H        -3.027158        -2.279632         0.431676
 H        -1.427311        -0.366069         2.117670
 H        -2.491084         1.234294        -0.100446
 H        -2.412210        -1.275853        -1.275849
 H        -1.015292        -0.080586        -1.874624
 H        -0.025240        -2.963098         1.210128
 H        -0.503689        -3.401283        -0.463921
 H         1.125313        -2.689154        -0.222653
