19
Iteration:  3651charge 0 multiplicity 1
 C        -3.178665        -1.834386         0.105399
 C        -1.977532        -0.836266         0.569105
 C        -1.800038         0.496471        -0.220502
 C        -0.907913        -0.349853        -1.286016
 C        -0.464790        -1.150174         0.011740
 C         0.183938        -2.473026         0.279688
 C         0.251971        -0.031160         0.701468
 O         1.365516         0.021744         1.123001
 O        -0.637899         1.056134         0.551609
 H        -4.034410        -1.226285         0.422182
 H        -3.083381        -2.113697        -0.937021
 H        -3.329104        -2.770074         0.635510
 H        -1.935241        -0.672808         1.659207
 H        -2.351564         1.327376        -0.648100
 H        -1.340931        -0.935071        -2.156229
 H        -0.220242         0.368478        -1.596645
 H         1.292910        -2.388142         0.253818
 H        -0.154869        -3.091255         1.199802
 H        -0.083251        -3.266328        -0.507139
