19
Iteration:  4479charge 0 multiplicity 1
 C        -3.071324        -1.771098         0.135961
 C        -1.892711        -0.927709         0.587035
 C        -1.724284         0.438458        -0.198665
 C        -0.983213        -0.357848        -1.240606
 C        -0.434780        -1.156446         0.019682
 C         0.186685        -2.550007        -0.162786
 C         0.229649        -0.017930         0.820844
 O         1.240463         0.135418         1.447897
 O        -0.644431         1.065470         0.466280
 H        -3.393548        -2.525786         0.842099
 H        -3.887859        -1.058645         0.190808
 H        -3.065343        -2.193308        -0.903355
 H        -2.065429        -0.670897         1.672882
 H        -2.329007         1.310778        -0.477690
 H        -1.603343        -1.007216        -1.882593
 H        -0.242766         0.095577        -1.915280
 H        -0.619349        -3.271952        -0.051268
 H         0.654817        -2.677285        -1.175388
 H         0.980856        -2.765214         0.598698
