19
Iteration:  4998
 C        -3.041321        -1.716999         0.384855
 C        -1.815752        -0.843243         0.655664
 C        -1.718476         0.406944        -0.339288
 C        -0.866584        -0.385303        -1.303203
 C        -0.388045        -1.117129        -0.088624
 C         0.162082        -2.506919        -0.279472
 C         0.167402        -0.068955         0.765300
 O         1.051980         0.062482         1.618995
 O        -0.632666         1.052216         0.403346
 H        -3.097674        -2.592890         1.014769
 H        -4.020193        -1.354914         0.720149
 H        -3.049298        -2.047737        -0.645493
 H        -1.605749        -0.627763         1.665499
 H        -2.519000         1.169922        -0.549585
 H        -1.426017        -0.975009        -2.100702
 H        -0.218298         0.284864        -1.970381
 H        -0.430667        -3.177220        -0.986624
 H         1.232239        -2.301168        -0.694447
 H         0.113272        -3.096287         0.709649
