19
Iteration:  4843charge 0 multiplicity 1
 C        -3.112750        -1.847480         0.050533
 C        -1.992205        -0.879900         0.547911
 C        -1.789545         0.476844        -0.190593
 C        -0.901474        -0.316143        -1.243961
 C        -0.543738        -1.172687         0.134905
 C         0.169993        -2.505900         0.060783
 C         0.233570         0.028334         0.775750
 O         1.382432         0.050372         1.170555
 O        -0.641116         1.067982         0.561403
 H        -2.965377        -2.775694         0.550840
 H        -4.029806        -1.354512         0.296081
 H        -3.058155        -2.026209        -0.982247
 H        -2.013546        -0.816493         1.598778
 H        -2.469782         1.311276        -0.373508
 H        -1.457606        -0.936598        -1.959034
 H        -0.038232         0.210913        -1.671893
 H        -0.321934        -3.314244        -0.552103
 H         1.209790        -2.359708        -0.288154
 H         0.200917        -2.889803         1.100808
