19
Iteration:  4192
 C        -3.075043        -1.834312         0.074412
 C        -1.981675        -0.875921         0.569073
 C        -1.756792         0.495256        -0.061773
 C        -0.938497        -0.308255        -1.282990
 C        -0.583810        -1.174141         0.068993
 C         0.189958        -2.578712         0.103891
 C         0.273269        -0.047079         0.678156
 O         1.422800         0.135858         1.022275
 O        -0.713336         1.100105         0.687318
 H        -3.450777        -2.534265         0.853804
 H        -3.951062        -1.212732        -0.405392
 H        -2.841448        -2.580206        -0.716301
 H        -1.820662        -0.703365         1.678658
 H        -2.544626         1.189887        -0.290810
 H        -1.644636        -1.036190        -1.771311
 H        -0.036038         0.178046        -1.862231
 H         1.269238        -2.415818         0.178240
 H        -0.068572        -3.209962         0.895950
 H        -0.106892        -3.227446        -0.658005
