19
Iteration:  2866charge 0 multiplicity 1
 C        -3.045982        -1.705550         0.276646
 C        -1.992699        -0.626973         0.430328
 C        -1.548334         0.393740        -0.650819
 C        -0.784716        -0.699831        -1.352490
 C        -0.454988        -1.105084         0.044558
 C         0.107644        -2.520598         0.420950
 C         0.183803        -0.009730         0.716559
 O         0.942025         0.046403         1.702916
 O        -0.530009         1.136179         0.138206
 H        -3.315993        -2.112310         1.261974
 H        -3.982074        -1.168555        -0.253565
 H        -2.669335        -2.552208        -0.335356
 H        -2.052835        -0.082724         1.338210
 H        -1.974575         1.352561        -1.218438
 H        -1.307346        -1.613981        -1.628352
 H         0.074446        -0.453321        -1.935598
 H        -0.569561        -3.377035         0.083598
 H         1.107795        -2.805423         0.129066
 H         0.195971        -2.477242         1.519444
