19
Iteration:   631charge 0 multiplicity 1
 C        -2.998105        -1.527002         1.043801
 C        -1.828454        -0.555913         0.863449
 C        -1.727525         0.467184        -0.185269
 C        -1.381174        -0.633856        -1.199709
 C        -0.601607        -1.229753         0.079118
 C         0.029225        -2.645729         0.203469
 C         0.335323        -0.016873         0.247266
 O         1.530412        -0.067007         0.420691
 O        -0.529395         1.140783         0.355789
 H        -2.836576        -2.023028         2.035863
 H        -3.961298        -1.063120         1.161125
 H        -3.163105        -2.317641         0.277376
 H        -1.460792        -0.380851         1.866972
 H        -2.430502         1.302124        -0.348340
 H        -2.211487        -1.212476        -1.716858
 H        -0.749504        -0.306079        -2.061257
 H        -0.658225        -3.349889         0.821137
 H         0.289353        -3.135325        -0.809742
 H         0.930303        -2.650802         0.735313
