19
Iteration:    14charge 0 multiplicity 1
 C        -2.761541        -1.593175         1.619532
 C        -1.672900        -0.608664         1.089990
 C        -1.804288         0.594567         0.024851
 C        -1.741352        -0.590407        -1.138344
 C        -0.686602        -1.201671        -0.016798
 C        -0.073352        -2.663827        -0.063086
 C         0.328838        -0.076076         0.109431
 O         1.573877        -0.048451        -0.022603
 O        -0.357474         1.096539         0.261460
 H        -3.153157        -1.104286         2.574250
 H        -3.607652        -1.732462         0.967111
 H        -2.394762        -2.612552         1.949100
 H        -1.102656        -0.286567         1.928751
 H        -2.432988         1.503709         0.039213
 H        -2.736852        -1.095285        -1.059423
 H        -1.310047        -0.362387        -2.125781
 H         0.802227        -2.869667         0.383906
 H        -0.891035        -3.341946         0.225328
 H         0.002692        -2.859922        -1.220269
