19
Iteration:  3534charge 0 multiplicity 1
 C        -3.142467        -1.700072         0.290302
 C        -1.898344        -0.820957         0.559271
 C        -1.720420         0.445005        -0.406309
 C        -0.899829        -0.485746        -1.311770
 C        -0.473230        -1.129889        -0.030263
 C         0.254510        -2.489771        -0.005027
 C         0.212530        -0.006517         0.740287
 O         1.191851         0.024381         1.493094
 O        -0.635838         1.052661         0.469631
 H        -3.296569        -2.455707         1.138167
 H        -3.923016        -0.932571         0.250774
 H        -3.207322        -2.239746        -0.725447
 H        -2.026898        -0.527940         1.656950
 H        -2.367976         1.236734        -0.805109
 H        -1.698619        -1.111228        -1.927895
 H        -0.061224        -0.092261        -1.952586
 H         0.877230        -2.702612        -0.903395
 H         0.990211        -2.473689         0.829575
 H        -0.492364        -3.341679         0.056451
