19
Iteration:  4313charge 0 multiplicity 1
 C        -3.095938        -1.850145         0.343736
 C        -1.962069        -0.826683         0.588175
 C        -1.644723         0.501981        -0.220021
 C        -0.957612        -0.356448        -1.322786
 C        -0.471704        -1.153493        -0.115688
 C         0.307394        -2.458063        -0.041411
 C         0.236744         0.013517         0.657084
 O         1.121531        -0.048060         1.457048
 O        -0.607003         1.107190         0.415794
 H        -2.707718        -2.849553         0.454045
 H        -3.811288        -1.843181         1.189201
 H        -3.777106        -1.767997        -0.454743
 H        -1.957224        -0.572396         1.676651
 H        -2.460432         1.232993        -0.348848
 H        -1.692645        -0.828509        -2.006671
 H        -0.253376         0.104950        -2.061445
 H         0.434536        -2.880182        -1.016883
 H         1.134811        -2.528124         0.612800
 H        -0.403057        -3.122821         0.373359
