19
Iteration:  4354charge 0 multiplicity 1
 C        -3.066161        -1.747041         0.098399
 C        -1.965939        -0.880957         0.628472
 C        -1.656479         0.406471        -0.152472
 C        -0.954426        -0.443455        -1.202411
 C        -0.424491        -1.151736         0.075478
 C         0.112750        -2.554991        -0.094289
 C         0.241223        -0.003665         0.672770
 O         1.300999         0.157523         1.313082
 O        -0.689176         1.101921         0.526462
 H        -2.761181        -2.810327         0.163260
 H        -4.018054        -1.475141         0.645661
 H        -3.286587        -1.539841        -0.931025
 H        -2.137357        -0.827947         1.707384
 H        -2.447815         1.096744        -0.482121
 H        -1.621801        -1.171667        -1.733322
 H        -0.201456         0.104594        -1.903556
 H        -0.007593        -3.017288        -1.183188
 H         1.219905        -2.521475         0.202308
 H        -0.279129        -3.140278         0.829812
