19
Iteration:  4900
 C        -3.183160        -1.807246        -0.098324
 C        -2.003172        -0.937479         0.583437
 C        -1.692852         0.393296        -0.140721
 C        -0.915319        -0.262378        -1.250280
 C        -0.516378        -1.185762         0.112031
 C         0.063313        -2.607569         0.219764
 C         0.292904         0.030329         0.737341
 O         1.428751         0.257653         1.086050
 O        -0.621448         1.016704         0.662945
 H        -3.063267        -2.793967         0.339949
 H        -4.251391        -1.651501         0.116719
 H        -3.131364        -1.929349        -1.186081
 H        -2.023772        -0.895530         1.651425
 H        -2.396069         1.180328        -0.415445
 H        -1.527930        -0.744774        -2.019808
 H        -0.096367         0.175775        -1.795702
 H        -0.737507        -3.266118        -0.183594
 H         0.898103        -2.684996        -0.542241
 H         0.559019        -2.912114         1.151213
