19
Iteration:  2188
 C        -3.068871        -1.648542        -0.019076
 C        -1.969921        -0.622324         0.438070
 C        -1.573604         0.427885        -0.521048
 C        -0.883570        -0.710757        -1.414366
 C        -0.511970        -1.239881         0.118629
 C         0.056581        -2.537299         0.642348
 C         0.211558        -0.052786         0.720956
 O         1.042234         0.158514         1.609529
 O        -0.406542         1.089994         0.183347
 H        -2.855809        -2.150952        -0.995063
 H        -3.365504        -2.404770         0.820308
 H        -4.063477        -1.137717        -0.310249
 H        -2.035764        -0.441303         1.538194
 H        -2.311281         1.309205        -0.831399
 H        -1.455013        -1.433257        -1.921607
 H        -0.106548        -0.326059        -2.106164
 H        -0.238916        -3.375755         0.092008
 H         1.164456        -2.420591         0.858338
 H        -0.338997        -2.648593         1.631765
