19
Iteration:  3750
 C        -3.059355        -1.814405         0.151586
 C        -1.948666        -0.855142         0.537274
 C        -1.697274         0.432935        -0.205914
 C        -1.020621        -0.320709        -1.304856
 C        -0.518844        -1.148167        -0.030269
 C         0.171193        -2.439491         0.183761
 C         0.228038         0.003288         0.678733
 O         1.252154        -0.070185         1.314793
 O        -0.565973         1.130469         0.464180
 H        -3.641124        -1.593695        -0.825718
 H        -2.617915        -2.828667         0.277987
 H        -3.792282        -1.830212         1.021055
 H        -1.928346        -0.750351         1.626542
 H        -2.519620         1.117324        -0.336898
 H        -1.701575        -0.763212        -2.126700
 H        -0.277755         0.226546        -1.871113
 H         0.931048        -2.572199        -0.674485
 H         0.760350        -2.466306         1.173938
 H        -0.361170        -3.465107         0.198332
