19
Iteration:  1509
 C        -3.164529        -1.503482         0.229790
 C        -1.931780        -0.753960         0.683147
 C        -1.683373         0.337254        -0.299535
 C        -1.085268        -0.647003        -1.295103
 C        -0.554922        -1.244194         0.119532
 C         0.098431        -2.607664         0.351840
 C         0.312303        -0.062446         0.612637
 O         1.343449         0.254034         1.188888
 O        -0.497261         1.010127         0.256219
 H        -3.009547        -2.550202        -0.147357
 H        -3.962430        -1.336680         0.945012
 H        -3.649173        -0.790556        -0.484288
 H        -1.770164        -0.413685         1.689450
 H        -2.276525         1.253322        -0.636248
 H        -1.683552        -1.339542        -1.793125
 H        -0.341798        -0.093676        -1.933363
 H        -0.063948        -2.860406         1.414440
 H        -0.165442        -3.464999        -0.126594
 H         1.183936        -2.516541         0.163562
