19
Iteration:   837charge 0 multiplicity 1
 C        -2.964273        -1.602216         0.917460
 C        -1.848607        -0.645318         0.834469
 C        -1.759680         0.452552        -0.209727
 C        -1.257998        -0.636815        -1.221248
 C        -0.597388        -1.151076         0.101995
 C        -0.096987        -2.573231         0.185293
 C         0.357652        -0.028486         0.385711
 O         1.549198         0.011146         0.574697
 O        -0.517634         1.093462         0.277271
 H        -2.566415        -2.600229         1.293495
 H        -3.711286        -1.245822         1.607825
 H        -3.467691        -1.766528        -0.052490
 H        -1.688255        -0.360722         1.884299
 H        -2.504534         1.190930        -0.380022
 H        -2.132235        -1.272777        -1.566730
 H        -0.665017        -0.338761        -2.092550
 H        -0.733398        -3.256741        -0.423427
 H         1.029416        -2.573859         0.014455
 H        -0.357334        -2.893761         1.171647
