19
Iteration:  2685charge 0 multiplicity 1
 C        -3.127565        -1.792042         0.049029
 C        -1.981985        -0.785371         0.425522
 C        -1.580255         0.437570        -0.590668
 C        -0.710805        -0.609414        -1.375594
 C        -0.504356        -1.148032         0.187772
 C        -0.090805        -2.533472         0.657769
 C         0.218314         0.030000         0.735861
 O         1.157884         0.181263         1.467206
 O        -0.489224         1.115673         0.234691
 H        -3.237126        -1.804167        -1.043321
 H        -2.892340        -2.806649         0.291628
 H        -4.070727        -1.571261         0.525089
 H        -2.180403        -0.325217         1.444495
 H        -2.280995         1.173776        -0.980364
 H        -1.265719        -1.342725        -1.884621
 H         0.126674        -0.102678        -1.923100
 H        -0.713532        -3.315558         0.142023
 H         0.993158        -2.853967         0.401698
 H        -0.160383        -2.646801         1.767031
