19
Iteration:   399
 C        -2.943798        -1.451688         1.216714
 C        -1.756936        -0.662772         1.026631
 C        -1.675018         0.453212        -0.159810
 C        -1.487560        -0.642953        -1.162896
 C        -0.687944        -1.251653         0.055934
 C         0.034414        -2.523856         0.150014
 C         0.345887        -0.033371         0.274197
 O         1.533667        -0.052400         0.226867
 O        -0.507256         1.091927         0.256597
 H        -3.356638        -1.180004         2.153848
 H        -3.799707        -1.345021         0.468127
 H        -2.660023        -2.506149         1.260324
 H        -1.299914        -0.352780         1.969398
 H        -2.507231         1.079762        -0.341269
 H        -2.297075        -1.309849        -1.440642
 H        -1.112838        -0.633877        -2.254511
 H        -0.703243        -3.202363         0.689429
 H         0.157603        -2.909050        -0.892954
 H         0.907913        -2.577976         0.846347
