19
Iteration:  1397charge 0 multiplicity 1
 C        -3.062810        -1.580786         0.441189
 C        -1.866893        -0.737697         0.739045
 C        -1.773272         0.394526        -0.300616
 C        -1.093968        -0.597364        -1.289649
 C        -0.503427        -1.179156        -0.007932
 C         0.007575        -2.581337         0.355464
 C         0.308866        -0.001033         0.531362
 O         1.325914         0.085207         1.190652
 O        -0.458947         1.084096         0.158114
 H        -3.553725        -1.773618         1.390437
 H        -3.815718        -1.042771        -0.282796
 H        -2.932126        -2.599054         0.054162
 H        -1.663452        -0.435189         1.764839
 H        -2.406739         1.246310        -0.499483
 H        -1.856906        -1.285424        -1.768424
 H        -0.366526        -0.246858        -1.965444
 H         0.682242        -3.021117        -0.388988
 H         0.439112        -2.652068         1.299247
 H        -0.895042        -3.164588         0.224162
