19
Iteration:  4201
 C        -3.091737        -1.793089         0.088967
 C        -1.955922        -0.902577         0.639750
 C        -1.674501         0.440508        -0.131074
 C        -0.975626        -0.374397        -1.235899
 C        -0.524202        -1.202036         0.029472
 C         0.135458        -2.572304         0.046458
 C         0.290608         0.003585         0.689345
 O         1.408126         0.151892         1.079199
 O        -0.742235         1.119833         0.678957
 H        -3.444357        -2.363252         0.938930
 H        -3.980709        -1.299376        -0.324441
 H        -2.644860        -2.411649        -0.640032
 H        -2.071128        -0.882645         1.727259
 H        -2.447586         1.124505        -0.433421
 H        -1.546164        -0.938902        -1.990689
 H        -0.263237         0.238168        -1.903538
 H         1.230707        -2.478149        -0.036341
 H        -0.146266        -3.106890         0.916925
 H        -0.103828        -3.082236        -0.851923
