19
Iteration:  4700charge 0 multiplicity 1
 C        -3.029175        -1.792368         0.053967
 C        -1.921097        -0.881790         0.553181
 C        -1.819374         0.493191        -0.126028
 C        -1.002643        -0.325865        -1.300341
 C        -0.473431        -1.136793         0.004667
 C         0.189618        -2.476687         0.095325
 C         0.202506        -0.044021         0.719382
 O         1.246737         0.012987         1.338086
 O        -0.558276         1.081093         0.499559
 H        -2.836520        -2.798350         0.461947
 H        -4.004797        -1.451772         0.371629
 H        -3.066555        -1.925008        -1.002770
 H        -1.705175        -0.983936         1.618579
 H        -2.609671         1.245012        -0.309284
 H        -1.601799        -0.958781        -1.981384
 H        -0.211517         0.280879        -1.792044
 H        -0.584762        -3.276506        -0.001183
 H         0.808920        -2.638401        -0.798849
 H         0.723442        -2.685672         1.086073
