19
Iteration:  4037charge 0 multiplicity 1
 C        -2.988649        -1.882743         0.414074
 C        -1.887348        -0.861586         0.705082
 C        -1.718169         0.596711        -0.295959
 C        -1.114271        -0.363926        -1.386949
 C        -0.487001        -1.088157        -0.132790
 C         0.327675        -2.395290        -0.081355
 C         0.209251        -0.050150         0.689171
 O         1.059148        -0.178866         1.572678
 O        -0.507571         1.143877         0.302299
 H        -3.105749        -2.627871         1.247739
 H        -4.007870        -1.359048         0.665688
 H        -3.162391        -2.371200        -0.571435
 H        -1.622014        -0.811614         1.798051
 H        -2.468833         1.403242        -0.465591
 H        -1.834566        -0.913205        -2.008352
 H        -0.517564         0.260310        -2.169289
 H         1.128015        -2.437619        -0.800193
 H         0.676113        -2.557527         0.888489
 H        -0.325412        -3.149565        -0.465860
