19
Iteration:  4441
 C        -2.999927        -1.855887         0.004939
 C        -2.001889        -0.903381         0.538712
 C        -1.728988         0.551171        -0.179974
 C        -1.015051        -0.305070        -1.185324
 C        -0.489898        -1.130937         0.087941
 C         0.199972        -2.433006         0.070493
 C         0.221159        -0.019134         0.723195
 O         1.335029         0.003823         1.176773
 O        -0.661090         1.027399         0.625015
 H        -3.400110        -2.718992         0.580448
 H        -3.893826        -1.223281        -0.327215
 H        -2.576048        -2.319086        -0.869484
 H        -2.101244        -0.766416         1.607980
 H        -2.507606         1.284211        -0.401978
 H        -1.708084        -0.884327        -1.804624
 H        -0.134552         0.095130        -1.746582
 H        -0.546493        -3.279659         0.293808
 H         0.753445        -2.729550        -0.838786
 H         0.792181        -2.464134         1.015407
