19
Iteration:  4671
 C        -3.107037        -1.775665        -0.060487
 C        -2.045521        -0.902619         0.541207
 C        -1.807838         0.453930        -0.105341
 C        -0.968815        -0.344099        -1.249476
 C        -0.543327        -1.170444         0.016852
 C         0.203315        -2.495368         0.190764
 C         0.274225         0.041330         0.738093
 O         1.440034         0.041953         1.158282
 O        -0.644624         1.069279         0.629781
 H        -3.049001        -2.742338         0.506056
 H        -4.192034        -1.327193         0.012737
 H        -2.780721        -2.032585        -1.110183
 H        -1.884348        -1.086468         1.687590
 H        -2.605930         1.165950        -0.368685
 H        -1.699068        -0.655546        -2.014361
 H        -0.160758         0.026192        -1.862624
 H        -0.320046        -3.461697         0.058794
 H         1.019820        -2.467521        -0.511942
 H         0.570956        -2.542778         1.190860
