19
Iteration:  2740charge 0 multiplicity 1
 C        -3.141759        -1.757385        -0.184542
 C        -2.104047        -0.803135         0.417691
 C        -1.522728         0.443849        -0.504229
 C        -0.676384        -0.729552        -1.177276
 C        -0.610136        -1.132250         0.276680
 C         0.026863        -2.469026         0.693542
 C         0.196571         0.043200         0.818003
 O         1.331446         0.116299         1.202337
 O        -0.628221         1.164295         0.340148
 H        -2.796161        -2.423967        -0.983993
 H        -3.387399        -2.336886         0.636832
 H        -4.008647        -1.207255        -0.520112
 H        -2.613467        -0.409687         1.353330
 H        -2.208919         1.027199        -1.034442
 H        -1.377261        -1.133744        -1.859624
 H         0.144722        -0.426660        -1.848170
 H        -0.576548        -3.369467         0.489457
 H         1.132799        -2.541830         0.245280
 H         0.106215        -2.471398         1.811261
