19
Iteration:   845charge 0 multiplicity 1
 C        -2.995946        -1.636884         0.892916
 C        -1.902223        -0.630825         0.868717
 C        -1.811839         0.437862        -0.245093
 C        -1.237568        -0.623628        -1.178750
 C        -0.536370        -1.194259         0.074268
 C        -0.117332        -2.570705         0.192923
 C         0.372709         0.002690         0.382649
 O         1.580582        -0.025798         0.556672
 O        -0.521144         1.139707         0.319285
 H        -2.770477        -2.542727         1.444647
 H        -3.706956        -1.155605         1.599580
 H        -3.459528        -1.843568        -0.089865
 H        -1.665722        -0.044123         1.764760
 H        -2.551367         1.180728        -0.584179
 H        -2.084602        -1.266240        -1.434504
 H        -0.653287        -0.407137        -2.078141
 H        -0.645340        -3.215528        -0.499124
 H         0.911983        -2.681336        -0.246015
 H         0.116404        -2.919076         1.273936
