19
Iteration:  3529charge 0 multiplicity 1
 C        -3.142700        -1.713431         0.275788
 C        -1.904249        -0.831208         0.547815
 C        -1.676797         0.451414        -0.395622
 C        -0.889095        -0.456895        -1.285535
 C        -0.492045        -1.171095        -0.028893
 C         0.238264        -2.450216         0.053770
 C         0.207723        -0.015442         0.738305
 O         1.185984         0.005470         1.457172
 O        -0.639470         1.057937         0.442295
 H        -3.323387        -2.520950         0.942132
 H        -3.992930        -1.003514         0.366515
 H        -3.112295        -2.135062        -0.693945
 H        -1.945255        -0.534705         1.575235
 H        -2.410882         1.225074        -0.674398
 H        -1.672189        -1.005931        -1.725548
 H        -0.211740        -0.007103        -1.986795
 H         0.850024        -2.665872        -0.836405
 H         1.058787        -2.442776         0.837255
 H        -0.395427        -3.346212        -0.006284
