19
Iteration:   414
 C        -3.064794        -1.469755         1.198573
 C        -1.739874        -0.687498         1.003530
 C        -1.772911         0.445504        -0.051243
 C        -1.477442        -0.718403        -1.126937
 C        -0.606118        -1.236023         0.038784
 C         0.034368        -2.582606         0.142636
 C         0.346165        -0.007035         0.208502
 O         1.519419        -0.021993         0.300930
 O        -0.403561         1.132789         0.152619
 H        -3.362774        -1.437685         2.281581
 H        -3.864791        -1.027971         0.628729
 H        -2.985932        -2.540078         0.905055
 H        -1.340871        -0.287176         1.964631
 H        -2.549924         1.275840        -0.086885
 H        -2.488273        -1.188338        -1.298692
 H        -0.951066        -0.373424        -2.027961
 H        -0.314177        -3.327834         0.971445
 H         0.020046        -3.159050        -0.823987
 H         1.053406        -2.302038         0.263403
