19
Iteration:   444
 C        -3.106773        -1.449149         1.138305
 C        -1.758614        -0.677918         1.119468
 C        -1.744057         0.389427        -0.007193
 C        -1.558954        -0.639661        -1.091534
 C        -0.547508        -1.255386         0.099251
 C         0.015696        -2.603924         0.102841
 C         0.399449        -0.029396         0.249711
 O         1.617938         0.062526         0.408464
 O        -0.454657         1.035960        -0.057246
 H        -3.209062        -2.030615         2.029634
 H        -4.005481        -0.790808         1.050119
 H        -3.074326        -2.136555         0.288095
 H        -1.398679        -0.186489         2.019637
 H        -2.560404         1.123912        -0.025940
 H        -2.475299        -1.038890        -1.465723
 H        -1.210140        -0.197053        -2.067386
 H         0.392398        -2.984182         1.080813
 H        -0.676767        -3.334807        -0.407061
 H         0.920800        -2.475418        -0.448033
