19
Iteration:  2504charge 0 multiplicity 1
 C        -3.142038        -1.622019        -0.096270
 C        -1.997701        -0.712929         0.394233
 C        -1.513594         0.432624        -0.454652
 C        -0.537724        -0.708138        -1.271823
 C        -0.498414        -1.244974         0.233977
 C        -0.111868        -2.678616         0.683912
 C         0.162267         0.026520         0.794185
 O         1.227632         0.252222         1.219398
 O        -0.666734         1.130253         0.335359
 H        -3.180735        -1.880219        -1.163125
 H        -3.167399        -2.537016         0.437477
 H        -4.060653        -1.060574         0.089792
 H        -2.150809        -0.373594         1.391600
 H        -2.331084         1.008636        -0.866578
 H        -1.071535        -1.436116        -1.949810
 H         0.474789        -0.368576        -1.609478
 H        -0.816147        -3.413855         0.297851
 H         0.950122        -2.965434         0.377456
 H        -0.266400        -2.654000         1.760802
