19
Iteration:  4154charge 0 multiplicity 1
 C        -3.052517        -1.882359        -0.031225
 C        -1.998777        -0.892236         0.648403
 C        -1.815814         0.481156        -0.056701
 C        -0.900983        -0.309214        -1.249646
 C        -0.570653        -1.132833         0.074417
 C         0.154374        -2.420251         0.221412
 C         0.283898        -0.012470         0.642805
 O         1.467160        -0.012162         0.927782
 O        -0.725018         1.082376         0.703859
 H        -3.307623        -2.794250         0.473745
 H        -3.905636        -1.311639        -0.046201
 H        -2.787945        -1.980298        -1.062272
 H        -2.057641        -0.864532         1.721577
 H        -2.718499         1.152496        -0.140146
 H        -1.645614        -0.754963        -1.910364
 H        -0.106420        -0.044738        -1.900024
 H         1.216947        -2.203219         0.066337
 H        -0.003798        -2.735088         1.288549
 H        -0.065742        -3.231302        -0.539323
