19
Iteration:  4312
 C        -3.101879        -1.852657         0.347076
 C        -1.952258        -0.815592         0.585288
 C        -1.653733         0.503328        -0.210914
 C        -0.957899        -0.361198        -1.329832
 C        -0.467851        -1.148711        -0.124845
 C         0.312583        -2.454665        -0.033073
 C         0.233236         0.019070         0.664352
 O         1.110971        -0.054432         1.450116
 O        -0.599372         1.103875         0.419406
 H        -2.678526        -2.841792         0.449188
 H        -3.816401        -1.834409         1.195022
 H        -3.772857        -1.797470        -0.438720
 H        -1.959196        -0.577147         1.667457
 H        -2.460325         1.215571        -0.360892
 H        -1.708445        -0.839477        -2.014202
 H        -0.206919         0.092857        -2.076321
 H         0.430355        -2.864780        -1.063311
 H         1.150611        -2.546398         0.631724
 H        -0.426564        -3.133336         0.373418
