19
Iteration:  1673
 C        -3.245041        -1.489027         0.380526
 C        -1.977285        -0.679523         0.586539
 C        -1.615362         0.334534        -0.552857
 C        -0.880325        -0.717016        -1.363275
 C        -0.519381        -1.156348         0.068351
 C         0.212932        -2.445500         0.367401
 C         0.235193        -0.028510         0.624619
 O         1.135121        -0.005106         1.422598
 O        -0.481043         1.040475         0.252714
 H        -4.150546        -0.881591         0.051617
 H        -3.251502        -2.293252        -0.304140
 H        -3.449359        -1.999927         1.344878
 H        -2.079226        -0.220682         1.559962
 H        -2.044054         1.205485        -1.090497
 H        -1.581187        -1.325656        -1.848940
 H         0.031986        -0.394903        -1.945965
 H        -0.023753        -3.125700        -0.539573
 H         1.244920        -2.153979         0.247684
 H        -0.006450        -2.867118         1.429977
