19
Iteration:  3156
 C        -3.054524        -1.757847         0.049592
 C        -2.028613        -0.713319         0.556033
 C        -1.594083         0.398429        -0.400812
 C        -0.787394        -0.573434        -1.317003
 C        -0.510923        -1.160048         0.077669
 C        -0.040389        -2.578279         0.255081
 C         0.225738         0.032967         0.744682
 O         1.208170         0.202174         1.423365
 O        -0.554797         1.092598         0.426420
 H        -3.349869        -2.402292         0.945329
 H        -3.924244        -1.321732        -0.461763
 H        -2.594426        -2.646166        -0.491059
 H        -2.226781        -0.535437         1.607468
 H        -2.358135         1.154723        -0.732208
 H        -1.301106        -1.356641        -1.994678
 H         0.109868        -0.192160        -1.830331
 H        -0.759769        -3.340935         0.335869
 H         0.590539        -2.780617        -0.632433
 H         0.526883        -2.726244         1.129826
