19
Iteration:  2638charge 0 multiplicity 1
 C        -3.158962        -1.503738         0.173301
 C        -2.027532        -0.620892         0.495451
 C        -1.673119         0.252993        -0.643013
 C        -0.735158        -0.695577        -1.293904
 C        -0.449823        -1.200344         0.181520
 C         0.192457        -2.612308         0.350211
 C         0.160619        -0.000927         0.788589
 O         0.957508         0.250161         1.652540
 O        -0.423530         0.990071         0.118579
 H        -3.266086        -1.625104        -0.863496
 H        -3.133610        -2.502388         0.630714
 H        -3.962298        -0.977126         0.573992
 H        -2.089975        -0.030867         1.443316
 H        -2.145199         1.090264        -1.290127
 H        -1.225524        -1.573842        -1.818986
 H         0.166597        -0.271794        -1.735764
 H        -0.222944        -3.368253        -0.432203
 H         1.233645        -2.640536         0.188596
 H         0.077788        -3.033451         1.393006
