19
Iteration:  2705charge 0 multiplicity 1
 C        -3.008771        -1.717901        -0.027358
 C        -2.110836        -0.656196         0.382342
 C        -1.626732         0.367170        -0.580978
 C        -0.660600        -0.531269        -1.353182
 C        -0.513482        -1.247652         0.157576
 C        -0.050236        -2.503665         0.782686
 C         0.227775         0.016940         0.749826
 O         1.278364         0.051517         1.361784
 O        -0.665770         1.094947         0.274250
 H        -3.104370        -2.022639        -1.037416
 H        -2.804385        -2.613916         0.553515
 H        -3.963574        -1.484454         0.343896
 H        -2.326995        -0.355810         1.464062
 H        -2.420910         1.081624        -1.032107
 H        -1.193933        -0.980854        -2.172682
 H         0.263955         0.105172        -1.629295
 H        -0.658728        -3.471175         0.587088
 H         1.005197        -2.775286         0.589325
 H         0.000303        -2.216924         1.866773
