19
Iteration:  1737
 C        -3.055699        -1.654686         0.153249
 C        -1.984583        -0.670802         0.583396
 C        -1.600567         0.434224        -0.474422
 C        -0.892481        -0.728703        -1.274310
 C        -0.547396        -1.179862         0.135699
 C        -0.137843        -2.564451         0.406217
 C         0.270208         0.030185         0.742593
 O         1.302598         0.200837         1.369841
 O        -0.496205         1.073396         0.212863
 H        -3.637163        -1.820995         0.983876
 H        -3.749818        -1.343444        -0.618119
 H        -2.506055        -2.569192        -0.120806
 H        -1.989441        -0.384776         1.653168
 H        -2.258333         1.083138        -1.151182
 H        -1.564387        -1.391371        -1.730603
 H        -0.024507        -0.681459        -1.986731
 H        -0.906962        -3.321207         0.773343
 H         0.095221        -3.068913        -0.505681
 H         0.710235        -2.531050         1.157857
