19
Iteration:  3711charge 0 multiplicity 1
 C        -3.088700        -1.717210        -0.021495
 C        -1.992873        -0.827416         0.595618
 C        -1.712740         0.339932        -0.157841
 C        -0.946478        -0.476326        -1.203716
 C        -0.516311        -1.212954         0.152334
 C         0.065306        -2.623320         0.131605
 C         0.302010         0.075168         0.739793
 O         1.444918         0.204236         1.106929
 O        -0.678053         1.082912         0.591596
 H        -3.617205        -1.288513        -0.837866
 H        -2.694744        -2.563669        -0.584698
 H        -3.701881        -1.996248         0.826040
 H        -2.209733        -0.660285         1.678428
 H        -2.450123         1.076689        -0.508401
 H        -1.629963        -0.997581        -1.819610
 H        -0.266066         0.136306        -1.911631
 H         0.954268        -2.531419        -0.498919
 H         0.356381        -2.911315         1.101362
 H        -0.642667        -3.210945        -0.397618
