19
Iteration:  4371charge 0 multiplicity 1
 C        -3.101634        -1.795079         0.008879
 C        -1.952165        -0.910982         0.629951
 C        -1.805809         0.448383        -0.243647
 C        -0.931212        -0.393591        -1.214785
 C        -0.542584        -1.206135         0.071474
 C         0.162699        -2.598263         0.050447
 C         0.230565         0.060751         0.724609
 O         1.397489         0.176561         1.214032
 O        -0.620610         1.084101         0.631968
 H        -3.005025        -2.873175         0.239755
 H        -4.007892        -1.419779         0.445564
 H        -3.066307        -1.789384        -1.133163
 H        -1.850079        -0.681276         1.704685
 H        -2.569580         1.270080        -0.304964
 H        -1.602406        -0.877917        -1.882075
 H        -0.155441         0.155642        -1.657550
 H        -0.210071        -3.006791        -0.822020
 H         1.189003        -2.605380        -0.193775
 H        -0.182856        -3.261137         0.804575
