19
Iteration:  4645
 C        -3.117294        -1.767203        -0.008794
 C        -2.035701        -0.880854         0.587247
 C        -1.686979         0.405453        -0.191417
 C        -0.818958        -0.332246        -1.189206
 C        -0.450245        -1.162206         0.162878
 C         0.167669        -2.507013         0.077752
 C         0.178268         0.035570         0.718132
 O         1.341649         0.110982         1.010434
 O        -0.714456         0.981710         0.728743
 H        -3.335218        -2.630386         0.638983
 H        -3.999384        -1.150069        -0.028092
 H        -2.824796        -2.073217        -1.002509
 H        -2.171058        -0.636752         1.686455
 H        -2.342969         1.184910        -0.583562
 H        -1.551196        -0.740436        -1.870950
 H        -0.038941        -0.026975        -1.886340
 H        -0.397096        -3.286181        -0.439811
 H         1.200672        -2.407497        -0.322656
 H         0.267380        -2.877627         1.160083
