19
Iteration:   346charge 0 multiplicity 1
 C        -2.982885        -1.612056         1.233695
 C        -1.653502        -0.647623         1.072753
 C        -1.727986         0.510047        -0.032076
 C        -1.539119        -0.581626        -1.033361
 C        -0.600355        -1.207012         0.104022
 C        -0.171336        -2.627785         0.098094
 C         0.367224         0.003230         0.200029
 O         1.572931         0.036299         0.267890
 O        -0.422863         1.062133         0.017427
 H        -3.817948        -1.035074         0.865213
 H        -2.848574        -2.484204         0.504348
 H        -3.210697        -1.948035         2.261144
 H        -1.147253        -0.311249         1.988162
 H        -2.495522         1.268506         0.046810
 H        -2.293087        -1.388884        -1.192106
 H        -1.020808        -0.370347        -2.061577
 H        -0.580934        -3.200453        -0.840132
 H         0.961602        -2.774170         0.101812
 H        -0.548248        -3.035677         1.041549
