19
Iteration:  1876
 C        -3.083874        -1.642033         0.166346
 C        -1.973616        -0.622400         0.465970
 C        -1.475605         0.424204        -0.566934
 C        -0.809411        -0.711540        -1.291440
 C        -0.545236        -1.260811         0.222971
 C        -0.085174        -2.749719         0.399436
 C         0.197976         0.080456         0.754877
 O         1.096885         0.278521         1.511497
 O        -0.442919         1.114934         0.173433
 H        -2.865230        -2.126454        -0.807561
 H        -3.118765        -2.496992         0.933775
 H        -4.094878        -1.124723         0.043814
 H        -2.219144        -0.106695         1.423109
 H        -2.238208         1.157509        -0.992929
 H        -1.350756        -1.480468        -1.779083
 H         0.128794        -0.639901        -1.968567
 H         1.019015        -2.795609         0.513834
 H        -0.408350        -3.148889         1.355401
 H        -0.330646        -3.398941        -0.445159
