19
Iteration:   628charge 0 multiplicity 1
 C        -2.992255        -1.516368         1.047425
 C        -1.817429        -0.567300         0.900330
 C        -1.723144         0.432461        -0.192033
 C        -1.381577        -0.663436        -1.216480
 C        -0.613042        -1.226936         0.049490
 C         0.021192        -2.638718         0.190728
 C         0.311361        -0.005026         0.247141
 O         1.519398        -0.053603         0.421408
 O        -0.507580         1.141293         0.383556
 H        -2.819237        -2.028422         1.982098
 H        -3.982014        -0.964912         1.161169
 H        -3.296686        -2.250060         0.269516
 H        -1.427238        -0.230383         1.908482
 H        -2.365629         1.325373        -0.439434
 H        -2.137401        -1.270471        -1.709491
 H        -0.752318        -0.304017        -2.127752
 H        -0.588100        -3.373961         0.703380
 H         0.320372        -3.113934        -0.778345
 H         0.893995        -2.630211         0.843956
