19
Iteration:  4971charge 0 multiplicity 1
 C        -3.177329        -1.869425         0.328929
 C        -1.952389        -0.841638         0.467941
 C        -1.687996         0.519915        -0.280440
 C        -0.948684        -0.379301        -1.313698
 C        -0.450172        -1.145758        -0.063699
 C         0.268922        -2.504872        -0.143485
 C         0.234907         0.017321         0.758289
 O         1.149150        -0.027353         1.542531
 O        -0.559862         1.144795         0.463706
 H        -2.878053        -2.546846         1.193171
 H        -4.194004        -1.484927         0.591180
 H        -3.214124        -2.397251        -0.656157
 H        -1.911117        -0.688488         1.624083
 H        -2.458178         1.294199        -0.393311
 H        -1.657464        -0.921267        -1.947564
 H        -0.337480         0.083787        -2.097961
 H        -0.190941        -3.148707        -0.874306
 H         1.287504        -2.342987        -0.369581
 H         0.361178        -2.941081         0.842152
