19
Iteration:  4095charge 0 multiplicity 1
 C        -3.122575        -1.806169         0.265153
 C        -1.927748        -0.858776         0.586996
 C        -1.729622         0.346341        -0.258142
 C        -0.863234        -0.395747        -1.261755
 C        -0.431737        -1.164195        -0.009413
 C         0.096169        -2.503261        -0.141155
 C         0.241246         0.015749         0.735813
 O         1.270231         0.151255         1.354102
 O        -0.602114         1.107755         0.536205
 H        -2.792612        -2.850521         0.447035
 H        -3.877735        -1.471939         1.060922
 H        -3.673118        -1.827364        -0.697825
 H        -2.092696        -0.755268         1.696911
 H        -2.580843         0.946239        -0.528529
 H        -1.614043        -0.975575        -1.829766
 H        -0.209224         0.182868        -1.855744
 H         0.830548        -2.533839        -1.000060
 H         0.622636        -2.939956         0.756300
 H        -0.761835        -3.181407        -0.247531
