19
Iteration:  3274
 C        -3.125912        -1.751357         0.149720
 C        -1.994963        -0.817521         0.545313
 C        -1.671418         0.417527        -0.404714
 C        -0.790244        -0.404689        -1.358506
 C        -0.494288        -1.159736         0.098729
 C         0.071861        -2.580455         0.298238
 C         0.190300        -0.041476         0.734773
 O         1.194562         0.131114         1.382533
 O        -0.535277         1.098019         0.373274
 H        -3.881803        -1.847694         0.998294
 H        -3.502517        -1.398856        -0.773205
 H        -2.741939        -2.793675        -0.073401
 H        -2.027469        -0.478658         1.579480
 H        -2.382972         1.259491        -0.513007
 H        -1.381832        -1.162626        -2.016555
 H         0.127163         0.051851        -1.684320
 H         0.248701        -2.990908        -0.771266
 H         1.166049        -2.515348         0.829479
 H        -0.712612        -3.393935         0.620782
