19
Iteration:  4910
 C        -3.128737        -1.812678        -0.018128
 C        -1.998468        -0.975224         0.581365
 C        -1.677825         0.467989        -0.182177
 C        -0.932896        -0.324063        -1.240170
 C        -0.443044        -1.164903         0.126520
 C         0.132240        -2.547649         0.156000
 C         0.226006         0.083066         0.758511
 O         1.373742         0.106666         1.108108
 O        -0.643259         1.050506         0.597473
 H        -3.156093        -2.858579         0.139573
 H        -4.146799        -1.412975         0.067456
 H        -2.805273        -1.811014        -1.021053
 H        -2.100150        -0.921621         1.610072
 H        -2.403097         1.263907        -0.360966
 H        -1.805310        -0.659808        -1.823642
 H        -0.296000         0.396165        -1.757995
 H        -0.680517        -3.331387        -0.002623
 H         1.012573        -2.802043        -0.499774
 H         0.257343        -2.756282         1.232009
