19
Iteration:  1303
 C        -3.135191        -1.684547         0.540373
 C        -1.922499        -0.778681         0.705835
 C        -1.630683         0.501302        -0.268278
 C        -1.082292        -0.559072        -1.306540
 C        -0.548419        -1.197383        -0.015777
 C         0.000519        -2.534661         0.389862
 C         0.284112         0.012880         0.557651
 O         1.433522         0.025829         0.900723
 O        -0.500611         1.081338         0.313330
 H        -3.967104        -1.136492         0.087825
 H        -3.041212        -2.623352         0.107138
 H        -3.661387        -1.791742         1.481885
 H        -1.856815        -0.400313         1.737138
 H        -2.412323         1.214113        -0.603032
 H        -1.940554        -1.028341        -1.795513
 H        -0.328160        -0.090291        -2.005895
 H        -0.586219        -3.028057         1.190310
 H        -0.111091        -3.288592        -0.415380
 H         1.091308        -2.323625         0.581651
