19
Iteration:  4643
 C        -3.129749        -1.766429         0.008945
 C        -2.039823        -0.870320         0.593975
 C        -1.683272         0.406745        -0.193950
 C        -0.794565        -0.331316        -1.173334
 C        -0.473583        -1.171409         0.147190
 C         0.168697        -2.524166         0.075104
 C         0.192901         0.055997         0.719335
 O         1.344394         0.117115         1.011519
 O        -0.726048         0.980205         0.722207
 H        -3.340968        -2.594493         0.633086
 H        -4.007517        -1.233875        -0.079806
 H        -2.791083        -2.023979        -0.979915
 H        -2.132686        -0.760889         1.624443
 H        -2.363185         1.150155        -0.616637
 H        -1.598675        -0.695567        -1.851649
 H         0.015496        -0.036286        -1.869841
 H        -0.421218        -3.245270        -0.517086
 H         1.243438        -2.437892        -0.282712
 H         0.298388        -2.930161         1.131886
