19
Iteration:  4387charge 0 multiplicity 1
 C        -3.087124        -1.811907         0.006706
 C        -2.027106        -0.901104         0.530701
 C        -1.710256         0.395977        -0.087809
 C        -0.922520        -0.286810        -1.276263
 C        -0.475285        -1.160267         0.085954
 C         0.101017        -2.513793         0.084855
 C         0.237134        -0.015952         0.783223
 O         1.393437         0.146555         1.104675
 O        -0.652934         1.053752         0.637321
 H        -3.048606        -2.762141         0.581856
 H        -4.139808        -1.455730         0.243644
 H        -3.054961        -2.036447        -1.039436
 H        -2.279588        -0.858831         1.596313
 H        -2.476369         1.091369        -0.403909
 H        -1.375454        -0.961345        -2.063302
 H        -0.097031         0.339075        -1.780002
 H        -0.366134        -3.419391        -0.540576
 H         1.230336        -2.371335        -0.119650
 H         0.057056        -2.900521         1.180149
