19
Iteration:  2460
 C        -3.237232        -1.610753        -0.095027
 C        -2.115114        -0.710348         0.448486
 C        -1.590230         0.475723        -0.517235
 C        -0.678932        -0.725527        -1.309904
 C        -0.594612        -1.212898         0.198524
 C         0.143882        -2.403136         0.725355
 C         0.161814        -0.080378         0.762717
 O         1.237039         0.076224         1.386956
 O        -0.527961         1.060512         0.229159
 H        -3.229415        -1.860437        -1.160730
 H        -3.135098        -2.540923         0.382259
 H        -4.229106        -1.176229         0.086556
 H        -2.345753        -0.440594         1.485090
 H        -2.099742         1.404868        -0.924840
 H        -1.128065        -1.538637        -1.918684
 H         0.295580        -0.307733        -1.775610
 H         0.124877        -3.231706         0.012589
 H         1.282683        -2.094457         0.812699
 H        -0.274488        -2.856607         1.634525
