19
Iteration:   590
 C        -3.204371        -1.438860         1.076688
 C        -1.835212        -0.714335         0.992789
 C        -1.771320         0.400011        -0.061145
 C        -1.379574        -0.610332        -1.143302
 C        -0.564640        -1.255681         0.098684
 C         0.058088        -2.701170         0.109449
 C         0.391947         0.013287         0.259601
 O         1.606193         0.062869         0.521644
 O        -0.460334         1.098522         0.017749
 H        -2.972492        -2.435481         1.562395
 H        -3.611703        -0.911830         1.911298
 H        -3.841476        -1.625555         0.209994
 H        -1.802693        -0.331794         2.026690
 H        -2.497935         1.164108        -0.259039
 H        -2.098925        -1.358577        -1.543542
 H        -0.865596        -0.067131        -1.861507
 H        -0.647034        -3.403457        -0.415453
 H         1.023650        -2.560791        -0.387502
 H         0.345263        -3.029477         1.137502
