19
Iteration:  4721
 C        -3.012132        -1.842016         0.224189
 C        -1.952737        -0.792319         0.624343
 C        -1.621815         0.424353        -0.304177
 C        -0.965820        -0.375670        -1.327603
 C        -0.499573        -1.156030        -0.050407
 C         0.153912        -2.504486        -0.122531
 C         0.245906         0.040996         0.718659
 O         1.210214        -0.001806         1.479600
 O        -0.665097         1.124844         0.562835
 H        -2.838204        -2.865563         0.547993
 H        -3.881584        -1.447828         0.649925
 H        -3.157969        -1.848629        -0.813882
 H        -1.883638        -0.489939         1.640904
 H        -2.504458         0.990842        -0.635311
 H        -1.586371        -1.011870        -1.981665
 H        -0.216995         0.214153        -1.938390
 H        -0.572527        -3.352995        -0.178703
 H         0.830232        -2.661438        -0.979114
 H         0.599278        -2.692284         0.922464
