19
Iteration:  3620charge 0 multiplicity 1
 C        -2.975804        -1.795300         0.158905
 C        -1.891515        -0.788302         0.557383
 C        -1.750323         0.549026        -0.225477
 C        -1.026465        -0.497437        -1.392486
 C        -0.528880        -1.145703        -0.059137
 C         0.159232        -2.498014         0.175912
 C         0.200977        -0.013166         0.697404
 O         1.210504        -0.042951         1.358825
 O        -0.553422         1.140183         0.505784
 H        -3.855923        -1.726472         0.821801
 H        -3.492684        -1.682104        -0.737143
 H        -2.555020        -2.788438         0.331539
 H        -1.871835        -0.556602         1.666111
 H        -2.438687         1.343195        -0.478247
 H        -1.775824        -1.123128        -1.948617
 H        -0.340466         0.018529        -1.981135
 H         1.262793        -2.412115        -0.030699
 H         0.169782        -2.800504         1.263389
 H        -0.178890        -3.222235        -0.637865
