19
Iteration:  1950charge 0 multiplicity 1
 C        -3.143829        -1.621232         0.067207
 C        -2.080009        -0.579426         0.460663
 C        -1.574267         0.416796        -0.592847
 C        -0.742374        -0.796273        -1.351941
 C        -0.582194        -1.230827         0.156128
 C         0.125586        -2.477583         0.567956
 C         0.186635        -0.001488         0.739458
 O         1.078922         0.111298         1.540043
 O        -0.432968         1.037029         0.221319
 H        -3.383988        -1.651566        -0.986677
 H        -2.915762        -2.607795         0.478965
 H        -4.006173        -1.246820         0.501961
 H        -2.321659        -0.136390         1.454209
 H        -2.127532         1.236885        -1.178395
 H        -1.492556        -1.293237        -1.976365
 H         0.156154        -0.488697        -1.989613
 H         0.559850        -3.034283        -0.295057
 H         1.039867        -2.064427         1.203197
 H        -0.435997        -3.269447         1.097600
