19
Iteration:  2966
 C        -3.147173        -1.752997        -0.060727
 C        -2.126998        -0.730917         0.396348
 C        -1.581494         0.428689        -0.448508
 C        -0.668545        -0.536938        -1.313594
 C        -0.535154        -1.178688         0.232976
 C         0.109718        -2.480683         0.655963
 C         0.219659         0.010659         0.673594
 O         1.277847         0.013493         1.186109
 O        -0.674062         1.116995         0.464620
 H        -3.982651        -1.471952        -0.769863
 H        -2.517504        -2.640223        -0.448161
 H        -3.604114        -2.175090         0.852645
 H        -2.344600        -0.342622         1.355816
 H        -2.313207         1.215892        -0.769425
 H        -1.226381        -1.110113        -1.960381
 H         0.058090         0.118400        -1.852306
 H        -0.377174        -3.434908         0.252750
 H         1.166570        -2.520257         0.548364
 H        -0.076301        -2.497505         1.790879
