19
Iteration:  1782
 C        -3.204897        -1.630523         0.079967
 C        -2.019404        -0.775503         0.489455
 C        -1.590294         0.330955        -0.476198
 C        -0.726847        -0.640024        -1.212988
 C        -0.612710        -1.194448         0.200728
 C        -0.047249        -2.479425         0.544035
 C         0.227673         0.004112         0.763671
 O         1.364315         0.118658         1.179039
 O        -0.541284         1.094351         0.269052
 H        -3.224656        -2.560756         0.558762
 H        -4.081883        -1.076312         0.342223
 H        -3.226172        -1.775604        -1.007617
 H        -2.249193        -0.283857         1.442892
 H        -2.188496         1.139430        -0.863001
 H        -1.191181        -1.228600        -1.978678
 H         0.151397        -0.177166        -1.636059
 H        -0.547086        -2.693245         1.531301
 H        -0.269498        -3.389132        -0.033764
 H         1.033758        -2.407314         0.850624
