19
Iteration:  1944
 C        -3.130632        -1.636368         0.128719
 C        -2.050953        -0.602613         0.446692
 C        -1.543694         0.444454        -0.643035
 C        -0.702374        -0.725357        -1.311168
 C        -0.620754        -1.208492         0.096923
 C         0.131008        -2.506403         0.604484
 C         0.144661        -0.033669         0.710636
 O         1.054329         0.073205         1.525323
 O        -0.453655         1.064270         0.204685
 H        -3.451358        -1.694516        -0.931594
 H        -2.932573        -2.676728         0.483133
 H        -4.126205        -1.326663         0.684106
 H        -2.102674        -0.095415         1.421051
 H        -2.065439         1.310200        -0.972467
 H        -1.291007        -1.347593        -2.001835
 H         0.208434        -0.463045        -1.856925
 H         0.700116        -2.996962        -0.202681
 H         0.851715        -2.080087         1.199609
 H        -0.449480        -3.269898         1.144481
