19
Iteration:  3091
 C        -3.162366        -1.577374         0.321761
 C        -1.928492        -0.749629         0.445015
 C        -1.580673         0.454742        -0.500632
 C        -0.784468        -0.564899        -1.442760
 C        -0.438879        -1.181327         0.008845
 C         0.252299        -2.477429         0.293979
 C         0.170794        -0.053497         0.717261
 O         0.974368         0.011992         1.620313
 O        -0.610489         1.027439         0.299007
 H        -2.888810        -2.727378         0.268278
 H        -3.828176        -1.382806         1.221437
 H        -3.801832        -1.327880        -0.652581
 H        -1.770001        -0.318343         1.464172
 H        -2.191462         1.222222        -1.042999
 H        -1.452730        -1.390814        -1.988959
 H        -0.024995        -0.219461        -2.186090
 H        -0.275732        -3.388006         0.320361
 H         1.065950        -2.541330        -0.462474
 H         0.681891        -2.429060         1.282202
