19
Iteration:  1891charge 0 multiplicity 1
 C        -3.088374        -1.641364         0.244072
 C        -1.981423        -0.669290         0.418267
 C        -1.503858         0.398682        -0.618362
 C        -0.659076        -0.699544        -1.364419
 C        -0.463981        -1.188879         0.086143
 C        -0.139808        -2.600708         0.470342
 C         0.222244        -0.028573         0.749155
 O         1.083767         0.261435         1.551912
 O        -0.523251         1.033769         0.225006
 H        -3.305458        -2.120471        -0.717347
 H        -2.931896        -2.428995         0.973593
 H        -4.051921        -1.181800         0.636884
 H        -1.981350        -0.246966         1.417727
 H        -2.024240         1.134049        -1.178077
 H        -1.439374        -1.208699        -1.987472
 H         0.114215        -0.337396        -1.971898
 H         0.911064        -2.784329         0.259546
 H        -0.400207        -2.814472         1.492201
 H        -0.800087        -3.234118        -0.130304
