19
Iteration:  1823
 C        -3.190675        -1.557903         0.029654
 C        -2.036833        -0.699911         0.464612
 C        -1.555090         0.407192        -0.490526
 C        -0.853537        -0.662926        -1.306206
 C        -0.550868        -1.288710         0.087400
 C         0.135693        -2.558805         0.711698
 C         0.216446         0.024991         0.698814
 O         1.251331         0.083505         1.306457
 O        -0.547734         1.108157         0.312501
 H        -3.051983        -2.602583        -0.271966
 H        -4.031623        -1.516708         0.822261
 H        -3.837162        -1.046607        -0.812005
 H        -2.162688        -0.442269         1.541606
 H        -2.340185         0.981509        -1.084972
 H        -1.421027        -1.275792        -1.939468
 H         0.142605        -0.392555        -1.818719
 H         0.749866        -2.119613         1.550234
 H        -0.422404        -3.389583         0.897254
 H         0.822684        -2.890842        -0.087321
