19
Iteration:   808charge 0 multiplicity 1
 C        -3.017422        -1.633722         0.952740
 C        -1.804044        -0.715011         0.920522
 C        -1.810223         0.446084        -0.115618
 C        -1.377172        -0.482745        -1.172968
 C        -0.588569        -1.217297        -0.006026
 C        -0.043422        -2.708323         0.237312
 C         0.429190        -0.037681         0.240516
 O         1.522403         0.066253         0.762933
 O        -0.415364         1.140208         0.006115
 H        -2.900665        -2.720294         1.007529
 H        -3.693035        -1.205333         1.695556
 H        -3.640604        -1.482945         0.069958
 H        -1.675390        -0.480387         1.981997
 H        -2.625752         1.180238        -0.288832
 H        -2.302605        -0.931720        -1.540115
 H        -0.814569        -0.012047        -1.982766
 H         0.174026        -3.402433        -0.585308
 H         0.833813        -2.527319         0.843614
 H        -0.821150        -3.197276         0.826073
