19
Iteration:  3414
 C        -3.185660        -1.736696         0.110095
 C        -1.991130        -0.876624         0.529186
 C        -1.641202         0.420337        -0.357568
 C        -0.765505        -0.463862        -1.183493
 C        -0.555692        -1.213300         0.115673
 C         0.029422        -2.579456         0.227119
 C         0.238983         0.004423         0.733234
 O         1.369105         0.171484         1.116735
 O        -0.640434         1.122228         0.523764
 H        -3.466316        -1.627144        -0.997225
 H        -2.886747        -2.755670         0.380698
 H        -4.082089        -1.505349         0.773156
 H        -2.003037        -0.624736         1.648792
 H        -2.363815         1.161950        -0.711109
 H        -1.485752        -1.248294        -1.682135
 H         0.063903         0.055636        -1.652741
 H         1.017871        -2.406353         0.601222
 H        -0.421669        -2.955485         1.066849
 H         0.105743        -3.109359        -0.719910
