19
Iteration:  3569charge 0 multiplicity 1
 C        -3.120785        -1.756575         0.371809
 C        -1.906188        -0.854190         0.600704
 C        -1.635505         0.477784        -0.368480
 C        -0.885879        -0.411997        -1.272397
 C        -0.438505        -1.193991         0.014126
 C         0.165710        -2.597051        -0.199559
 C         0.206468        -0.015578         0.759802
 O         1.098080         0.163854         1.582642
 O        -0.579711         1.068414         0.350608
 H        -3.716900        -1.984745         1.285430
 H        -3.896693        -1.100041        -0.126145
 H        -2.979275        -2.741327        -0.177482
 H        -1.782027        -0.556491         1.651856
 H        -2.292219         1.203418        -0.855995
 H        -1.575721        -1.044279        -1.897414
 H         0.071173        -0.122739        -1.897605
 H         0.840956        -2.693251        -1.087689
 H         0.709713        -2.800244         0.642231
 H        -0.614412        -3.314891        -0.280174
