19
Iteration:    11charge 0 multiplicity 1
 C        -2.783501        -1.597298         1.601684
 C        -1.654571        -0.611010         1.116190
 C        -1.805361         0.573527         0.064838
 C        -1.723204        -0.589482        -1.094100
 C        -0.677685        -1.196029        -0.014622
 C        -0.083162        -2.648774        -0.080611
 C         0.330784        -0.069670         0.095842
 O         1.564779        -0.048895        -0.022035
 O        -0.372275         1.080065         0.218594
 H        -3.174640        -0.966317         2.372846
 H        -3.537444        -1.683367         0.820067
 H        -2.409813        -2.515700         2.035406
 H        -0.991424        -0.355366         1.971624
 H        -2.422033         1.461075         0.122300
 H        -2.704591        -1.037420        -1.191449
 H        -1.406865        -0.343650        -2.103753
 H         0.837049        -2.986928         0.548067
 H        -0.928927        -3.308232         0.126671
 H         0.121074        -2.763063        -1.126565
