19
Iteration:  2725
 C        -3.096312        -1.789000        -0.100966
 C        -2.037102        -0.729483         0.388445
 C        -1.538160         0.395017        -0.521486
 C        -0.666693        -0.607136        -1.284995
 C        -0.566255        -1.178807         0.230425
 C         0.000827        -2.410963         0.798356
 C         0.121606         0.065808         0.702372
 O         1.194554         0.044256         1.184931
 O        -0.576644         1.135971         0.421168
 H        -2.844908        -2.153474        -1.088731
 H        -3.236139        -2.711565         0.592882
 H        -4.084418        -1.343265        -0.239367
 H        -2.134778        -0.478880         1.451502
 H        -2.070869         1.298379        -1.042091
 H        -1.126886        -1.480720        -1.848609
 H         0.366444        -0.433759        -1.708400
 H        -0.711144        -3.220500         0.445544
 H         0.894376        -2.588934         0.354409
 H         0.127663        -2.372050         1.884808
