19
Iteration:  1883charge 0 multiplicity 1
 C        -3.080625        -1.670956         0.207625
 C        -1.975635        -0.601854         0.442145
 C        -1.433049         0.389666        -0.581467
 C        -0.731637        -0.684061        -1.332998
 C        -0.508577        -1.223010         0.128035
 C        -0.119318        -2.677721         0.441743
 C         0.194169         0.031624         0.752747
 O         1.080593         0.285134         1.522881
 O        -0.500326         1.050927         0.194365
 H        -3.151461        -2.087806        -0.811319
 H        -3.038099        -2.401893         0.981220
 H        -3.954603        -1.115211         0.336499
 H        -2.150711        -0.179208         1.450662
 H        -2.089575         1.195257        -0.914183
 H        -1.533144        -1.385026        -1.754129
 H         0.156379        -0.494596        -1.918881
 H         0.967383        -2.814656         0.321848
 H        -0.431179        -3.128839         1.507501
 H        -0.516432        -3.380698        -0.322654
