19
Iteration:   966
 C        -3.035078        -1.690507         0.983705
 C        -1.949972        -0.672572         0.869800
 C        -1.769363         0.504503        -0.283302
 C        -1.155153        -0.480612        -1.196798
 C        -0.575344        -1.163301         0.102581
 C        -0.039719        -2.685643        -0.011562
 C         0.322550         0.011066         0.392653
 O         1.467108        -0.040467         0.792585
 O        -0.464819         1.151448         0.192354
 H        -3.162625        -1.879939         2.097438
 H        -3.914738        -1.335228         0.424810
 H        -2.641832        -2.695926         0.603715
 H        -1.736189        -0.128140         1.817168
 H        -2.483447         1.254509        -0.558134
 H        -1.824924        -1.279447        -1.636963
 H        -0.471089        -0.118618        -1.938337
 H         1.062845        -2.669323         0.132203
 H        -0.319118        -3.236582         0.959321
 H        -0.426276        -3.220399        -0.924366
