19
Iteration:   469
 C        -2.999018        -1.449842         1.187797
 C        -1.769337        -0.631016         0.997776
 C        -1.724336         0.465690        -0.126659
 C        -1.410782        -0.765001        -1.057068
 C        -0.546949        -1.224430         0.051887
 C        -0.080012        -2.623182         0.065564
 C         0.366284        -0.043502         0.171147
 O         1.503742         0.024519         0.439715
 O        -0.485119         1.126825         0.128542
 H        -2.703245        -2.342967         1.810769
 H        -3.731429        -0.899735         1.724153
 H        -3.396896        -1.794930         0.222954
 H        -1.310950        -0.247817         1.915916
 H        -2.540845         1.215548        -0.304247
 H        -2.294696        -1.370132        -1.308390
 H        -1.004382        -0.558890        -2.023549
 H         0.779990        -2.579092         0.810816
 H        -0.820078        -3.339905         0.422088
 H         0.393893        -2.909181        -0.843555
