19
Iteration:  2154
 C        -3.305230        -1.564222         0.161242
 C        -2.015573        -0.654994         0.364037
 C        -1.496122         0.363575        -0.609237
 C        -0.509836        -0.792005        -1.297447
 C        -0.575255        -1.198169         0.231748
 C         0.201273        -2.500187         0.450186
 C         0.102052        -0.021418         0.773373
 O         0.994985         0.070761         1.568044
 O        -0.518680         1.164920         0.184030
 H        -3.316642        -2.235499        -0.765062
 H        -3.505240        -2.326087         0.997795
 H        -4.201516        -0.825195         0.165969
 H        -1.968866        -0.099158         1.331363
 H        -2.191993         1.034107        -1.312066
 H        -0.986190        -1.594426        -1.889969
 H         0.409488        -0.410848        -1.747738
 H        -0.404173        -3.295933         0.044342
 H         1.137917        -2.468115        -0.174697
 H         0.268954        -2.799071         1.482285
