19
Iteration:  1732charge 0 multiplicity 1
 C        -3.095622        -1.643486         0.192764
 C        -1.943822        -0.703856         0.575622
 C        -1.601002         0.406649        -0.443809
 C        -0.884850        -0.729689        -1.310743
 C        -0.538951        -1.146555         0.091324
 C        -0.163352        -2.536374         0.420991
 C         0.297469         0.022951         0.712040
 O         1.279244         0.183913         1.397011
 O        -0.505663         1.078561         0.208652
 H        -3.799002        -1.869379         1.112308
 H        -3.660117        -1.361900        -0.773300
 H        -2.601249        -2.613162        -0.009719
 H        -1.975935        -0.287674         1.596081
 H        -2.115211         1.150047        -1.034835
 H        -1.502065        -1.581181        -1.790759
 H        -0.027568        -0.591384        -1.977092
 H        -0.870172        -3.246020         0.776761
 H         0.365716        -2.978616        -0.500252
 H         0.658002        -2.507845         1.099429
