19
Iteration:  1784charge 0 multiplicity 1
 C        -3.213004        -1.623596         0.077199
 C        -2.010713        -0.785513         0.471534
 C        -1.586499         0.332427        -0.468007
 C        -0.734407        -0.631666        -1.226503
 C        -0.596602        -1.190660         0.191539
 C        -0.039313        -2.465503         0.560698
 C         0.221880         0.006437         0.769660
 O         1.355943         0.111382         1.172175
 O        -0.543089         1.082493         0.283443
 H        -3.249014        -2.605626         0.541938
 H        -4.037603        -1.075477         0.427304
 H        -3.237106        -1.705175        -0.971094
 H        -2.246331        -0.238201         1.376753
 H        -2.162358         1.091488        -0.891847
 H        -1.198775        -1.311551        -2.000008
 H         0.136075        -0.184701        -1.619776
 H        -0.502383        -2.665808         1.534176
 H        -0.334434        -3.412531         0.007688
 H         1.020875        -2.360410         0.831599
