19
Iteration:  2022charge 0 multiplicity 1
 C        -3.203961        -1.624972         0.027299
 C        -2.089960        -0.738515         0.307330
 C        -1.536153         0.357513        -0.630325
 C        -0.599291        -0.651396        -1.329185
 C        -0.457094        -1.188661         0.194013
 C        -0.000941        -2.598787         0.609710
 C         0.211918         0.002576         0.789638
 O         1.239593         0.180385         1.392000
 O        -0.642061         1.129323         0.413564
 H        -3.179890        -2.275370        -0.922830
 H        -3.360995        -2.224978         0.947767
 H        -4.097271        -0.896665        -0.201015
 H        -2.293496        -0.301574         1.285149
 H        -2.166870         1.075993        -1.138828
 H        -1.119225        -1.358948        -2.046689
 H         0.349980        -0.358382        -1.665666
 H        -0.559214        -3.350272         0.062457
 H         1.031372        -2.851890         0.597616
 H        -0.371905        -2.761602         1.621413
