19
Iteration:  4744charge 0 multiplicity 1
 C        -3.064754        -1.813063         0.363459
 C        -1.950777        -0.830987         0.500594
 C        -1.675877         0.506595        -0.279362
 C        -0.848994        -0.374756        -1.288300
 C        -0.440188        -1.144972        -0.045872
 C         0.167731        -2.510466        -0.260092
 C         0.155159         0.025152         0.794005
 O         1.124939         0.058780         1.542902
 O        -0.592241         1.022622         0.447782
 H        -2.657687        -2.642033         0.950054
 H        -3.855204        -1.380750         0.963653
 H        -3.345680        -2.212323        -0.567163
 H        -2.076174        -0.418555         1.493873
 H        -2.498074         1.254784        -0.282268
 H        -1.470205        -1.123079        -1.813462
 H        -0.058609        -0.046451        -2.012290
 H        -0.497090        -3.335536        -0.656569
 H         0.962181        -2.401910        -1.012389
 H         0.546278        -2.945640         0.730602
