19
Iteration:  1791
 C        -3.231177        -1.602503         0.083375
 C        -2.015627        -0.776063         0.435848
 C        -1.583293         0.369650        -0.471965
 C        -0.745267        -0.623718        -1.311098
 C        -0.512034        -1.182956         0.172885
 C        -0.010057        -2.474218         0.654692
 C         0.196695         0.019246         0.741187
 O         1.321860         0.083173         1.163546
 O        -0.554023         1.040700         0.347973
 H        -3.246050        -2.627282         0.413640
 H        -4.075448        -1.081080         0.632313
 H        -3.421093        -1.578201        -1.061703
 H        -2.158959        -0.311042         1.451741
 H        -2.288504         1.063100        -1.030984
 H        -1.196134        -1.397758        -1.851574
 H         0.200797        -0.199280        -1.760408
 H        -0.340224        -2.621186         1.729108
 H        -0.383935        -3.273645         0.064022
 H         1.123171        -2.373247         0.611577
