19
Iteration:  4520
 C        -3.058024        -1.838318         0.357467
 C        -1.932870        -0.834523         0.561698
 C        -1.681686         0.515207        -0.372823
 C        -0.922225        -0.344497        -1.339831
 C        -0.446688        -1.122564        -0.072197
 C         0.247403        -2.477795        -0.120114
 C         0.153610        -0.043967         0.770929
 O         1.167086        -0.078150         1.530579
 O        -0.648187         1.127454         0.461899
 H        -2.821766        -2.753311         0.864734
 H        -3.796374        -1.281421         0.956396
 H        -3.571158        -1.935486        -0.571685
 H        -1.811470        -0.733395         1.606138
 H        -2.559749         1.112652        -0.648551
 H        -1.576958        -0.977657        -2.033707
 H        -0.222181         0.293443        -1.947038
 H        -0.470120        -3.244948        -0.582395
 H         1.195921        -2.416145        -0.734047
 H         0.697430        -2.758549         0.847398
