19
Iteration:   747
 C        -3.190911        -1.477630         1.187811
 C        -1.991339        -0.614928         0.892913
 C        -1.772576         0.412847        -0.186142
 C        -1.229886        -0.610959        -1.283090
 C        -0.569825        -1.203734         0.060356
 C         0.201062        -2.651146         0.059280
 C         0.329812        -0.041146         0.420731
 O         1.517344        -0.046136         0.610341
 O        -0.455510         1.113251         0.119271
 H        -3.027733        -2.255508         1.932287
 H        -3.892463        -0.747360         1.751889
 H        -3.752640        -1.800995         0.291339
 H        -1.614078        -0.108045         1.806667
 H        -2.668295         1.101593        -0.271016
 H        -1.977379        -1.327354        -1.631993
 H        -0.671993        -0.234352        -2.192289
 H         1.281895        -2.590058        -0.067223
 H        -0.087454        -3.401243         0.869761
 H        -0.195221        -3.134727        -0.972342
