19
Iteration:  2788
 C        -3.150177        -1.576379        -0.049794
 C        -1.936417        -0.809441         0.478611
 C        -1.582625         0.307427        -0.566310
 C        -0.704948        -0.778903        -1.200454
 C        -0.512401        -1.198061         0.187117
 C        -0.002697        -2.643333         0.520917
 C         0.176171         0.114159         0.800612
 O         1.177407         0.319334         1.443667
 O        -0.570142         1.142300         0.223650
 H        -3.008938        -2.598938        -0.438003
 H        -3.941473        -1.574820         0.783993
 H        -3.569384        -0.959738        -0.901043
 H        -1.903939        -0.714963         1.536875
 H        -2.429836         0.934252        -0.940231
 H        -1.290461        -1.508014        -1.821929
 H         0.092105        -0.502299        -1.798765
 H        -0.458183        -3.518553         0.037297
 H         1.058121        -2.669828         0.281403
 H        -0.021838        -2.906828         1.584561
