19
Iteration:   968charge 0 multiplicity 1
 C        -3.024241        -1.699786         0.979953
 C        -1.950858        -0.684928         0.865444
 C        -1.748749         0.498237        -0.281917
 C        -1.153496        -0.494721        -1.207860
 C        -0.586449        -1.154531         0.095055
 C        -0.050937        -2.670446        -0.015699
 C         0.318082         0.030585         0.408034
 O         1.464351        -0.040707         0.792064
 O        -0.459680         1.151226         0.204797
 H        -3.125999        -1.848771         2.088973
 H        -3.852057        -1.280924         0.456489
 H        -2.713308        -2.724052         0.654124
 H        -1.707424        -0.095993         1.739844
 H        -2.529620         1.171138        -0.584054
 H        -1.883059        -1.251915        -1.635605
 H        -0.461993        -0.152561        -1.986780
 H         1.057301        -2.716992         0.065139
 H        -0.321289        -3.228428         0.993768
 H        -0.482454        -3.190852        -0.836660
