19
Iteration:   120
 C        -2.941418        -1.447550         1.490361
 C        -1.659864        -0.675858         1.104283
 C        -1.768406         0.505161         0.112144
 C        -1.565817        -0.602323        -0.957307
 C        -0.638254        -1.246884         0.066447
 C        -0.045132        -2.646296        -0.168422
 C         0.372660        -0.076066         0.092470
 O         1.573918        -0.067072         0.054730
 O        -0.498928         1.132658         0.123074
 H        -2.947563        -1.824652         2.492384
 H        -3.826239        -0.810900         1.451807
 H        -3.172885        -2.315334         0.878371
 H        -1.169968        -0.388646         2.062492
 H        -2.535979         1.287554         0.222931
 H        -2.309880        -1.231305        -1.320951
 H        -1.074813        -0.257498        -1.828135
 H        -0.540286        -3.309848        -0.942293
 H         0.975878        -2.451276        -0.539480
 H         0.056437        -3.134678         0.790972
