19
Iteration:  4205charge 0 multiplicity 1
 C        -3.082344        -1.776474         0.106733
 C        -1.953778        -0.906677         0.655145
 C        -1.700339         0.407588        -0.187715
 C        -0.980843        -0.400209        -1.207049
 C        -0.451330        -1.201981         0.020397
 C         0.109531        -2.555250         0.003218
 C         0.260201         0.041575         0.700746
 O         1.398017         0.154453         1.104367
 O        -0.704547         1.101104         0.668775
 H        -3.490131        -2.389712         0.958152
 H        -4.011122        -1.206302        -0.304423
 H        -2.611853        -2.464278        -0.687973
 H        -2.144114        -0.872671         1.771791
 H        -2.513888         1.129229        -0.406543
 H        -1.659729        -0.856410        -1.978319
 H        -0.251814         0.202471        -1.767807
 H         1.195199        -2.482974        -0.023617
 H        -0.139708        -3.051570         0.965938
 H        -0.192522        -3.057422        -0.938801
