19
Iteration:  1445charge 0 multiplicity 1
 C        -3.069781        -1.677121         0.560604
 C        -2.058591        -0.538622         0.580805
 C        -1.641930         0.416452        -0.441048
 C        -0.956172        -0.604879        -1.309295
 C        -0.575137        -1.199131         0.105952
 C         0.056843        -2.522100         0.297123
 C         0.246397        -0.038525         0.616827
 O         1.301229        -0.003333         1.183040
 O        -0.485331         1.061888         0.226871
 H        -2.528188        -2.561529         1.074723
 H        -4.019470        -1.429066         1.018417
 H        -3.307418        -2.090031        -0.462461
 H        -2.171661         0.071856         1.485596
 H        -2.282158         1.278027        -0.766101
 H        -1.487348        -1.378216        -1.816625
 H        -0.237476         0.030378        -1.990206
 H        -0.527244        -3.291841        -0.228723
 H         1.103723        -2.450269        -0.156645
 H         0.071112        -2.812804         1.389018
