19
Iteration:  4841
 C        -3.123516        -1.838310         0.052156
 C        -1.993009        -0.873443         0.552402
 C        -1.793676         0.480666        -0.195103
 C        -0.913426        -0.312482        -1.222792
 C        -0.532178        -1.158449         0.102703
 C         0.178423        -2.505338         0.067737
 C         0.233900         0.035519         0.770588
 O         1.380927         0.044394         1.182292
 O        -0.637275         1.053032         0.550186
 H        -2.933799        -2.777626         0.570482
 H        -4.060187        -1.404821         0.308059
 H        -3.022752        -2.079615        -0.982716
 H        -2.026414        -0.869649         1.616557
 H        -2.472745         1.330421        -0.363709
 H        -1.458810        -0.952641        -1.941487
 H        -0.004380         0.171311        -1.649105
 H        -0.274738        -3.297755        -0.544978
 H         1.187363        -2.349199        -0.312857
 H         0.173050        -2.926648         1.102069
