19
Iteration:    36
 C        -2.738203        -1.589004         1.645972
 C        -1.736192        -0.578558         1.107038
 C        -1.774560         0.470385         0.032887
 C        -1.541961        -0.533832        -1.068066
 C        -0.693668        -1.185304        -0.066556
 C        -0.195746        -2.549051        -0.093160
 C         0.347665        -0.052979         0.026448
 O         1.576872        -0.110560         0.036612
 O        -0.464334         1.045398         0.217099
 H        -2.723343        -1.436884         2.760416
 H        -3.732356        -1.551682         1.243973
 H        -2.330722        -2.635297         1.469548
 H        -1.126682        -0.247726         1.909988
 H        -2.512478         1.291716        -0.062923
 H        -2.553814        -1.025981        -1.104357
 H        -1.106376        -0.079185        -2.003605
 H         0.815053        -2.410477        -0.076429
 H        -0.442128        -3.097147         0.821340
 H        -0.398493        -3.211780        -1.042848
