19
Iteration:  2498charge 0 multiplicity 1
 C        -3.206621        -1.630256        -0.094620
 C        -1.982200        -0.724871         0.359529
 C        -1.527112         0.479190        -0.450795
 C        -0.540943        -0.709317        -1.315954
 C        -0.517397        -1.224112         0.240699
 C        -0.054788        -2.680774         0.724334
 C         0.145230         0.031087         0.772633
 O         1.275189         0.201315         1.236141
 O        -0.691807         1.158477         0.353676
 H        -3.248042        -1.868963        -1.164470
 H        -3.225199        -2.646563         0.426498
 H        -4.067263        -1.001678         0.192751
 H        -2.151727        -0.357796         1.447999
 H        -2.297344         0.920300        -1.122804
 H        -0.961440        -1.522378        -1.935589
 H         0.432789        -0.364846        -1.577060
 H        -0.669581        -3.464594         0.139224
 H         0.960054        -2.918031         0.528563
 H        -0.215666        -2.673823         1.843175
