19
Iteration:  2601charge 0 multiplicity 1
 C        -3.274723        -1.571532         0.251265
 C        -1.971749        -0.804795         0.426663
 C        -1.527942         0.414430        -0.718303
 C        -0.740415        -0.673046        -1.379308
 C        -0.396741        -1.192111         0.061516
 C         0.245551        -2.521062         0.546131
 C         0.153108         0.045144         0.734720
 O         0.946067         0.018820         1.623491
 O        -0.486883         1.138678         0.215639
 H        -3.398217        -2.338283        -0.601078
 H        -3.608617        -2.037812         1.201623
 H        -4.059382        -0.750225         0.011013
 H        -2.128973        -0.240325         1.296770
 H        -2.142775         1.058164        -1.254864
 H        -1.390688        -1.396994        -1.909724
 H         0.033407        -0.407114        -2.123847
 H        -0.327998        -3.289581         0.217995
 H         1.266851        -2.569401         0.113325
 H         0.247722        -2.575582         1.601059
