19
Iteration:   609
 C        -3.109640        -1.434260         1.144738
 C        -1.798556        -0.698766         0.918716
 C        -1.781993         0.400984        -0.194402
 C        -1.302738        -0.681790        -1.208993
 C        -0.569149        -1.206224         0.039887
 C        -0.002023        -2.516781         0.133698
 C         0.335398        -0.070480         0.315793
 O         1.552626         0.047100         0.448091
 O        -0.459226         1.037566         0.259063
 H        -3.154694        -2.374063         1.743174
 H        -3.871245        -0.790720         1.549652
 H        -3.407010        -1.699258         0.109760
 H        -1.456221        -0.402494         1.909436
 H        -2.623535         1.121737        -0.241158
 H        -2.243685        -1.250151        -1.480725
 H        -0.733254        -0.570947        -2.163586
 H        -0.868423        -3.277230         0.167889
 H         0.756615        -2.687906        -0.717280
 H         0.555068        -2.599886         1.025289
