19
Iteration:  3411charge 0 multiplicity 1
 C        -3.187964        -1.739666         0.120997
 C        -2.004019        -0.844069         0.541799
 C        -1.626711         0.423630        -0.338980
 C        -0.779027        -0.470051        -1.204872
 C        -0.541140        -1.198420         0.103546
 C         0.052482        -2.575046         0.239125
 C         0.246751         0.009229         0.714369
 O         1.357108         0.144136         1.139718
 O        -0.662153         1.121825         0.505710
 H        -3.500134        -1.580503        -0.938854
 H        -2.834856        -2.813833         0.272797
 H        -4.066004        -1.534077         0.742929
 H        -1.966264        -0.673997         1.672855
 H        -2.331761         1.153351        -0.706231
 H        -1.542394        -1.108892        -1.712462
 H         0.078783        -0.009597        -1.753226
 H         1.088989        -2.442329         0.592905
 H        -0.413853        -3.068243         1.131521
 H         0.129522        -3.101332        -0.693605
