19
Iteration:  4003charge 0 multiplicity 1
 C        -3.020672        -1.794617         0.295900
 C        -1.947750        -0.778706         0.671068
 C        -1.727312         0.477942        -0.192455
 C        -1.025138        -0.390370        -1.353383
 C        -0.432144        -1.085008        -0.055215
 C         0.229036        -2.441216        -0.051192
 C         0.224619        -0.038971         0.659965
 O         1.187178        -0.030858         1.396095
 O        -0.612547         1.016149         0.440154
 H        -3.172443        -2.251205         1.302244
 H        -3.929547        -1.220939        -0.023705
 H        -2.751830        -2.639202        -0.392502
 H        -1.766418        -0.657386         1.760052
 H        -2.528078         1.270450        -0.283694
 H        -1.721991        -1.100811        -1.844077
 H        -0.361662         0.173106        -2.133568
 H         1.134569        -2.321042        -0.550090
 H         0.415699        -3.022161         0.799503
 H        -0.437745        -3.047641        -0.655829
