19
Iteration:  2919
 C        -3.228121        -1.628242        -0.092575
 C        -2.048386        -0.777418         0.530002
 C        -1.710372         0.268175        -0.452803
 C        -0.686791        -0.680975        -1.208710
 C        -0.442461        -1.182954         0.228714
 C         0.063280        -2.598158         0.457941
 C         0.222259         0.079678         0.754313
 O         1.224588         0.273409         1.433006
 O        -0.519350         1.098499         0.231651
 H        -4.115501        -1.243531         0.327300
 H        -3.277689        -1.625508        -1.192005
 H        -3.160434        -2.659707         0.228019
 H        -2.273627        -0.401998         1.557811
 H        -2.318375         1.094850        -0.955664
 H        -1.265307        -1.419464        -1.883708
 H         0.151186        -0.179940        -1.612195
 H        -0.770158        -3.278895         0.030996
 H         1.045460        -2.762177        -0.193691
 H         0.355573        -2.889329         1.509196
