19
Iteration:  2808charge 0 multiplicity 1
 C        -3.198768        -1.642177         0.108912
 C        -1.960234        -0.730428         0.431565
 C        -1.531267         0.306155        -0.570825
 C        -0.762917        -0.697637        -1.409326
 C        -0.413388        -1.199808         0.158758
 C         0.089769        -2.571388         0.544940
 C         0.243429         0.059198         0.720762
 O         1.064724         0.223421         1.603981
 O        -0.575642         1.138842         0.198988
 H        -2.919580        -2.703672         0.107090
 H        -3.949450        -1.543651         0.864353
 H        -3.648994        -1.408642        -0.877465
 H        -2.108916        -0.107005         1.369100
 H        -2.207247         1.013190        -1.007921
 H        -1.390969        -1.456998        -1.955139
 H         0.048772        -0.453301        -2.056592
 H        -0.574309        -3.286766         0.019144
 H         1.213589        -2.941319         0.333006
 H        -0.202270        -2.846466         1.590686
