19
Iteration:  4047
 C        -3.039217        -1.846720         0.486064
 C        -1.855805        -0.813095         0.585784
 C        -1.681058         0.478757        -0.248212
 C        -1.090165        -0.323758        -1.384594
 C        -0.465315        -1.101163        -0.085968
 C         0.277921        -2.385510        -0.129300
 C         0.213833        -0.006013         0.676022
 O         1.015988        -0.145245         1.552054
 O        -0.508133         1.076536         0.323002
 H        -2.762059        -2.812871         0.995589
 H        -4.062391        -1.433710         0.658967
 H        -2.977925        -2.126087        -0.589795
 H        -1.820028        -0.577020         1.661588
 H        -2.409936         1.323945        -0.292764
 H        -1.818634        -1.061632        -1.725732
 H        -0.387282         0.198668        -2.154923
 H         1.093487        -2.308025        -0.805125
 H         0.717854        -2.538733         0.819255
 H        -0.342254        -3.261036        -0.312326
