19
Iteration:   981
 C        -3.005798        -1.702057         0.993864
 C        -1.800608        -0.675961         0.769175
 C        -1.681166         0.428896        -0.271113
 C        -1.185600        -0.622267        -1.302499
 C        -0.578750        -1.165086         0.009339
 C        -0.135199        -2.532947         0.053028
 C         0.303571         0.008556         0.490800
 O         1.468328         0.006874         0.803609
 O        -0.482619         1.154919         0.279836
 H        -3.257737        -1.743607         2.041488
 H        -3.980832        -1.382407         0.632743
 H        -2.934659        -2.677327         0.551832
 H        -1.654470        -0.395222         1.803763
 H        -2.422833         1.248329        -0.457816
 H        -2.100985        -1.080672        -1.682658
 H        -0.482895        -0.347118        -2.137326
 H         0.815716        -2.671894        -0.461620
 H        -0.225057        -3.028816         1.061020
 H        -0.822856        -3.038347        -0.574015
