19
Iteration:  3680
 C        -3.185017        -1.742860         0.012321
 C        -1.998288        -0.872501         0.612484
 C        -1.603093         0.397465        -0.182455
 C        -0.845798        -0.451218        -1.119202
 C        -0.529867        -1.240648         0.160600
 C         0.102142        -2.549584         0.135166
 C         0.229678         0.020371         0.712216
 O         1.394195         0.223655         0.998215
 O        -0.695629         1.056912         0.626191
 H        -3.930772        -0.981502        -0.352575
 H        -2.782226        -2.460909        -0.835789
 H        -3.653631        -2.394139         0.768360
 H        -2.126261        -0.673087         1.696254
 H        -2.171841         1.135926        -0.780942
 H        -1.536389        -0.877444        -1.843202
 H        -0.067259         0.062242        -1.867420
 H         1.135658        -2.438382        -0.069374
 H        -0.054809        -3.119953         1.024120
 H        -0.339576        -3.132818        -0.645825
