19
Iteration:  4866charge 0 multiplicity 1
 C        -3.093141        -1.761129        -0.022367
 C        -1.964320        -0.872895         0.624342
 C        -1.673831         0.390118        -0.220264
 C        -0.811240        -0.346201        -1.227731
 C        -0.469966        -1.176991         0.126195
 C         0.070439        -2.580127         0.130137
 C         0.195632         0.034375         0.754958
 O         1.361110         0.171144         1.007166
 O        -0.742069         1.050474         0.739267
 H        -2.843457        -2.741475         0.298401
 H        -4.064134        -1.377404         0.261432
 H        -2.948397        -1.822047        -1.059347
 H        -2.063531        -0.756695         1.675872
 H        -2.407089         1.130934        -0.554371
 H        -1.434598        -0.993590        -1.840414
 H         0.081021         0.069189        -1.680127
 H        -0.730912        -3.217482        -0.383954
 H         0.877392        -2.615702        -0.643265
 H         0.270165        -3.123006         1.058793
