19
Iteration:  2733charge 0 multiplicity 1
 C        -3.108607        -1.782984        -0.160978
 C        -2.097815        -0.774541         0.411873
 C        -1.463592         0.424428        -0.480476
 C        -0.649224        -0.691693        -1.247863
 C        -0.568647        -1.156969         0.273721
 C        -0.004776        -2.397878         0.739538
 C         0.128346         0.059505         0.758340
 O         1.259734         0.072927         1.177805
 O        -0.611625         1.156287         0.374979
 H        -2.854975        -2.403178        -1.064029
 H        -3.389535        -2.528346         0.663356
 H        -4.091383        -1.215512        -0.330226
 H        -2.369976        -0.545928         1.428406
 H        -2.128540         1.142632        -0.982326
 H        -1.471293        -1.245671        -1.808744
 H         0.248475        -0.448106        -1.765179
 H        -0.598597        -3.229478         0.430449
 H         0.976636        -2.581199         0.292317
 H         0.167392        -2.426240         1.807045
