19
Iteration:  3112charge 0 multiplicity 1
 C        -3.093791        -1.669507         0.198800
 C        -1.953562        -0.742435         0.520022
 C        -1.619203         0.439169        -0.430345
 C        -0.915388        -0.643417        -1.373709
 C        -0.473916        -1.237992        -0.020956
 C         0.245536        -2.463937         0.306099
 C         0.201244         0.050152         0.695180
 O         0.955895        -0.030302         1.622848
 O        -0.450514         1.184049         0.267466
 H        -2.856981        -2.772577         0.465114
 H        -4.027961        -1.288971         0.655804
 H        -3.249495        -1.739223        -0.940514
 H        -1.915484        -0.421460         1.562123
 H        -2.284962         1.229507        -0.768295
 H        -1.679970        -1.193328        -2.039288
 H        -0.177850        -0.218377        -2.054847
 H        -0.497499        -3.184184         0.462845
 H         0.875784        -2.854931        -0.513463
 H         0.718405        -2.461191         1.239142
