19
Iteration:  3879charge 0 multiplicity 1
 C        -3.119212        -1.903032         0.061124
 C        -1.986768        -0.860159         0.665129
 C        -1.824870         0.505967        -0.179616
 C        -0.971727        -0.235170        -1.256584
 C        -0.513384        -1.096203         0.012704
 C         0.211687        -2.452706         0.115295
 C         0.325832        -0.026475         0.590704
 O         1.336493        -0.040511         1.221914
 O        -0.627007         1.028044         0.570687
 H        -2.752623        -2.898894        -0.197125
 H        -3.682390        -1.992477         0.980104
 H        -3.691863        -1.356615        -0.654949
 H        -1.968304        -0.635941         1.723154
 H        -2.552274         1.282350        -0.376026
 H        -1.614962        -0.976825        -1.849337
 H        -0.146359         0.279654        -1.798108
 H         1.208707        -2.387247        -0.173423
 H         0.258267        -2.786924         1.144820
 H        -0.184321        -3.178909        -0.533914
