19
Iteration:  2066charge 0 multiplicity 1
 C        -2.944681        -1.710317        -0.084111
 C        -2.082423        -0.581999         0.451542
 C        -1.627056         0.449068        -0.527888
 C        -0.766767        -0.603478        -1.261812
 C        -0.624571        -1.185658         0.214738
 C         0.001943        -2.546888         0.659587
 C         0.162084         0.060001         0.736891
 O         1.112597        -0.005175         1.500121
 O        -0.416257         1.062359         0.154175
 H        -2.541892        -2.199835        -1.040429
 H        -2.856639        -2.505729         0.691100
 H        -4.084482        -1.644337        -0.281553
 H        -2.471406        -0.235282         1.410485
 H        -2.156182         1.248044        -1.073954
 H        -1.159185        -1.234924        -2.097279
 H         0.017627        -0.019692        -1.641203
 H        -0.737884        -3.321715         0.738787
 H         0.744170        -2.798684        -0.065013
 H         0.364522        -2.431678         1.672453
