19
Iteration:  1103charge 0 multiplicity 1
 C        -3.186500        -1.608267         0.793004
 C        -1.897847        -0.800706         0.842734
 C        -1.759171         0.394584        -0.233347
 C        -1.048880        -0.501281        -1.360242
 C        -0.498370        -1.154434        -0.002060
 C        -0.087908        -2.583247         0.278055
 C         0.357790         0.002356         0.435408
 O         1.527202         0.037013         0.723228
 O        -0.523216         1.086108         0.349408
 H        -3.184592        -2.635965         0.590578
 H        -3.760924        -1.527070         1.737335
 H        -3.877202        -1.201224         0.100668
 H        -1.835095        -0.409105         1.871509
 H        -2.535085         1.201407        -0.402490
 H        -1.730052        -1.103530        -1.968188
 H        -0.269560        -0.054713        -2.029439
 H        -0.647159        -3.234037         0.991578
 H        -0.077545        -3.135515        -0.661726
 H         1.005376        -2.521092         0.588608
