19
Iteration:  1967
 C        -3.212839        -1.534986        -0.083742
 C        -2.051472        -0.700395         0.461259
 C        -1.514338         0.330618        -0.570363
 C        -0.896486        -0.783878        -1.236172
 C        -0.471004        -1.154689         0.251797
 C         0.140063        -2.569729         0.523556
 C         0.252904         0.047242         0.792710
 O         1.168051         0.178293         1.573294
 O        -0.501276         1.099783         0.145162
 H        -3.187792        -1.755450        -1.197436
 H        -3.165822        -2.535110         0.390011
 H        -4.321882        -1.204589         0.115794
 H        -2.174062        -0.262209         1.443964
 H        -2.153524         1.096631        -0.893049
 H        -1.482336        -1.657342        -1.612348
 H        -0.175182        -0.617135        -1.966161
 H         0.252902        -3.093472        -0.413506
 H         1.080910        -2.553954         0.959566
 H        -0.614098        -3.129646         1.062753
