19
Iteration:   240charge 0 multiplicity 1
 C        -2.916235        -1.422492         1.418467
 C        -1.663722        -0.675050         1.046143
 C        -1.758768         0.506985        -0.046524
 C        -1.619308        -0.721415        -1.072168
 C        -0.666928        -1.234396         0.071054
 C        -0.103474        -2.645442        -0.125313
 C         0.394799        -0.015757         0.151855
 O         1.598059         0.010929         0.262301
 O        -0.438100         1.090461         0.173714
 H        -2.965025        -2.437397         0.972171
 H        -3.139477        -1.559950         2.478672
 H        -3.863759        -0.970341         1.049673
 H        -1.141514        -0.371662         1.997732
 H        -2.529939         1.352785        -0.087289
 H        -2.550708        -1.264335        -1.120288
 H        -1.164936        -0.738797        -2.031121
 H         0.907278        -2.516318         0.355682
 H        -0.614479        -3.523336         0.258164
 H         0.210047        -2.764035        -1.171306
