19
Iteration:  3210
 C        -3.189721        -1.682246        -0.072488
 C        -2.076259        -0.858025         0.514517
 C        -1.695139         0.467355        -0.265597
 C        -0.738170        -0.478064        -1.228287
 C        -0.583042        -1.228103         0.142671
 C         0.121139        -2.473889         0.443607
 C         0.248702        -0.047493         0.727556
 O         1.358139         0.152931         1.137721
 O        -0.635640         1.028064         0.466500
 H        -4.089545        -1.767853         0.585477
 H        -3.631025        -1.207068        -0.931044
 H        -2.761141        -2.531037        -0.662247
 H        -2.243354        -0.788791         1.581201
 H        -2.507720         1.170399        -0.592974
 H        -1.180906        -1.193100        -2.009591
 H         0.255746        -0.123133        -1.414401
 H        -0.008653        -3.362754        -0.193812
 H         1.273831        -2.321624         0.389458
 H        -0.034186        -2.825033         1.485932
