19
Iteration:  2087
 C        -2.995347        -1.665973        -0.064804
 C        -1.965992        -0.736243         0.513044
 C        -1.519301         0.459381        -0.551061
 C        -0.782008        -0.650401        -1.332308
 C        -0.531760        -1.220929         0.179271
 C        -0.042194        -2.573465         0.604559
 C         0.229879        -0.028821         0.748130
 O         1.064575         0.130334         1.607521
 O        -0.502879         1.174512         0.131169
 H        -2.824003        -1.973594        -1.138508
 H        -3.266318        -2.602230         0.399172
 H        -3.996846        -1.124424        -0.112147
 H        -2.235755        -0.357702         1.507442
 H        -2.322858         1.091156        -0.937628
 H        -1.417399        -1.403201        -1.872529
 H         0.052898        -0.408889        -1.954419
 H        -0.958675        -3.159520         0.783486
 H         0.495983        -3.036094        -0.183133
 H         0.454963        -2.559342         1.579736
