19
Iteration:  4559charge 0 multiplicity 1
 C        -2.996466        -1.869799         0.284222
 C        -1.901973        -0.792635         0.566646
 C        -1.675992         0.555834        -0.246342
 C        -1.073899        -0.328330        -1.344376
 C        -0.451009        -1.134576        -0.023363
 C         0.203469        -2.433586         0.026961
 C         0.192902        -0.095007         0.684114
 O         1.173381        -0.099893         1.460309
 O        -0.611223         1.141039         0.414188
 H        -2.516627        -2.894509         0.430342
 H        -4.073235        -1.790867         0.678474
 H        -3.183573        -1.995393        -0.824444
 H        -1.805016        -0.733675         1.748790
 H        -2.390063         1.245205        -0.689783
 H        -1.693688        -0.978644        -1.922872
 H        -0.370482         0.309409        -1.844853
 H        -0.004961        -3.049054        -0.825551
 H         1.257877        -2.243097         0.026882
 H        -0.098719        -3.010928         0.913868
