19
Iteration:   607
 C        -3.120564        -1.436904         1.143759
 C        -1.801696        -0.700670         0.909284
 C        -1.775427         0.399599        -0.181842
 C        -1.312021        -0.672578        -1.193651
 C        -0.566414        -1.203905         0.057966
 C         0.001699        -2.514677         0.127395
 C         0.353529        -0.073455         0.316426
 O         1.562955         0.050199         0.454443
 O        -0.475255         1.032811         0.231042
 H        -3.134082        -2.365804         1.711776
 H        -3.909443        -0.779932         1.573020
 H        -3.520141        -1.673099         0.124614
 H        -1.383758        -0.451316         1.896934
 H        -2.622474         1.133519        -0.212100
 H        -2.205090        -1.247641        -1.501294
 H        -0.728440        -0.550418        -2.180192
 H        -0.808482        -3.266513         0.116407
 H         0.758376        -2.692724        -0.700287
 H         0.504576        -2.667003         1.061232
