19
Iteration:   970
 C        -3.010288        -1.711991         0.980096
 C        -1.941880        -0.691805         0.854553
 C        -1.726552         0.487142        -0.277322
 C        -1.155388        -0.517323        -1.222943
 C        -0.596869        -1.147827         0.084350
 C        -0.062545        -2.649523        -0.007055
 C         0.314606         0.045209         0.427089
 O         1.461599        -0.038405         0.791271
 O        -0.456379         1.151074         0.218190
 H        -3.119321        -1.807693         2.051739
 H        -3.841263        -1.238963         0.487169
 H        -2.800680        -2.726537         0.690475
 H        -1.680331        -0.078260         1.697641
 H        -2.582286         1.120175        -0.606903
 H        -1.932064        -1.187579        -1.630702
 H        -0.449614        -0.186972        -2.039163
 H         1.037080        -2.758162        -0.031643
 H        -0.321007        -3.187629         0.962709
 H        -0.550448        -3.176383        -0.775544
