19
Iteration:  4771charge 0 multiplicity 1
 C        -3.120577        -1.802763         0.419166
 C        -1.914559        -0.931942         0.697102
 C        -1.759623         0.504729        -0.357905
 C        -0.891123        -0.356816        -1.400698
 C        -0.421940        -1.135864        -0.105809
 C         0.214454        -2.512080        -0.182098
 C         0.254549         0.058544         0.704569
 O         1.080029        -0.019299         1.584038
 O        -0.577207         1.092066         0.447595
 H        -2.994051        -2.755196         1.001544
 H        -4.114772        -1.286007         0.643146
 H        -3.007995        -2.178519        -0.683871
 H        -1.826574        -0.415855         1.737163
 H        -2.526012         1.271711        -0.502577
 H        -1.413953        -1.003438        -2.122123
 H        -0.039720         0.171657        -1.816491
 H        -0.325494        -3.070491        -0.928963
 H         1.164228        -2.337013        -0.742194
 H         0.383321        -3.109754         0.678802
