19
Iteration:  1363
 C        -3.235847        -1.555175         0.432948
 C        -1.941276        -0.751188         0.730517
 C        -1.691560         0.434865        -0.296796
 C        -1.045754        -0.704242        -1.199899
 C        -0.599401        -1.247575         0.148160
 C         0.110733        -2.600995         0.254607
 C         0.285658         0.038373         0.585777
 O         1.408103         0.168008         1.013844
 O        -0.422578         1.088999         0.252176
 H        -4.011767        -1.031398         1.025943
 H        -3.633109        -1.437979        -0.645430
 H        -3.085988        -2.622261         0.661735
 H        -2.092186        -0.458549         1.789980
 H        -2.381576         1.189267        -0.639372
 H        -1.811751        -1.371474        -1.667248
 H        -0.364957        -0.506045        -1.994256
 H         1.192642        -2.547557         0.300147
 H        -0.375526        -3.378549         0.820112
 H        -0.095551        -2.973546        -0.732231
