19
Iteration:  2904
 C        -3.195391        -1.633409         0.055251
 C        -1.981331        -0.798222         0.502441
 C        -1.577799         0.390211        -0.519584
 C        -0.758189        -0.658200        -1.238424
 C        -0.448865        -1.258295         0.172468
 C         0.073369        -2.669889         0.391403
 C         0.211395         0.075112         0.735118
 O         1.102924         0.317095         1.553505
 O        -0.508197         1.116460         0.174559
 H        -4.120841        -1.473535         0.667567
 H        -3.479064        -1.300237        -0.908125
 H        -3.057195        -2.724228        -0.069637
 H        -2.128632        -0.546925         1.603842
 H        -2.370087         0.949655        -0.863484
 H        -1.098390        -1.459336        -1.969092
 H         0.133170        -0.249599        -1.822917
 H        -0.698850        -3.373363         0.245334
 H         0.985609        -3.060495        -0.135667
 H         0.127133        -2.715361         1.470352
