19
Iteration:  4249charge 0 multiplicity 1
 C        -3.057966        -1.855259         0.300385
 C        -1.905078        -0.856239         0.640336
 C        -1.736717         0.411347        -0.211788
 C        -1.015783        -0.375182        -1.256342
 C        -0.553265        -1.165643        -0.026526
 C         0.211522        -2.582859        -0.165532
 C         0.214250         0.060999         0.713335
 O         1.208824         0.108803         1.412117
 O        -0.510811         1.124200         0.446722
 H        -3.178598        -2.653748         1.067431
 H        -4.007541        -1.227697         0.387920
 H        -2.965899        -2.222982        -0.776074
 H        -1.888094        -0.540148         1.720423
 H        -2.439457         1.192750        -0.568677
 H        -1.777458        -0.773724        -1.996292
 H        -0.217484         0.014174        -1.851079
 H         1.115716        -2.566042        -0.711669
 H         0.416545        -2.966213         0.838883
 H        -0.423623        -3.288693        -0.719664
