19
Iteration:    56charge 0 multiplicity 1
 C        -2.794788        -1.582173         1.599095
 C        -1.554036        -0.714618         1.151245
 C        -1.823451         0.484409         0.084266
 C        -1.685889        -0.461901        -1.118777
 C        -0.640346        -1.191880         0.036404
 C        -0.144925        -2.626159        -0.063053
 C         0.339336        -0.040967         0.100389
 O         1.529740        -0.094366         0.093955
 O        -0.425310         1.128256         0.036245
 H        -2.869162        -1.627292         2.668213
 H        -3.586194        -1.144815         1.074312
 H        -2.640565        -2.551216         1.150592
 H        -1.039591        -0.287337         2.005341
 H        -2.563546         1.260067         0.330692
 H        -2.321101        -1.219368        -1.553097
 H        -1.198510         0.048359        -1.930626
 H         0.790452        -2.787083        -0.576095
 H         0.013591        -3.074033         0.922359
 H        -0.908408        -3.224328        -0.658890
