19
Iteration:  4925charge 0 multiplicity 1
 C        -3.003770        -1.781512        -0.031416
 C        -1.939877        -0.871375         0.593909
 C        -1.782316         0.440397        -0.144728
 C        -0.965374        -0.344357        -1.224433
 C        -0.528734        -1.136743         0.009313
 C         0.157596        -2.504735         0.158898
 C         0.232409        -0.047650         0.697287
 O         1.347347        -0.001356         1.190940
 O        -0.666517         1.156814         0.589846
 H        -3.128802        -2.708045         0.596098
 H        -4.005600        -1.331548         0.274521
 H        -3.125530        -2.003840        -1.156858
 H        -2.029728        -0.772339         1.742699
 H        -2.608228         1.108766        -0.429646
 H        -1.352064        -1.075246        -1.910134
 H        -0.127484         0.053303        -1.787862
 H        -0.466837        -3.262577        -0.269332
 H         1.106012        -2.510042        -0.400300
 H         0.490563        -2.692406         1.196883
