19
Iteration:  4702charge 0 multiplicity 1
 C        -3.011569        -1.776175         0.071460
 C        -1.914654        -0.890444         0.543634
 C        -1.829223         0.485297        -0.132057
 C        -0.987927        -0.329990        -1.312801
 C        -0.473694        -1.141857        -0.005302
 C         0.174395        -2.484587         0.080094
 C         0.194862        -0.028185         0.731073
 O         1.257801         0.007015         1.355673
 O        -0.571976         1.082633         0.490848
 H        -2.794715        -2.793944         0.483114
 H        -4.070958        -1.468425         0.402126
 H        -3.087570        -1.937057        -1.022613
 H        -1.729905        -0.941220         1.707885
 H        -2.573871         1.282960        -0.291114
 H        -1.656644        -0.914183        -1.933869
 H        -0.191144         0.222582        -1.779910
 H        -0.575789        -3.312784        -0.009411
 H         0.830098        -2.603957        -0.783418
 H         0.734965        -2.637017         1.025632
