19
Iteration:  1498
 C        -3.233870        -1.435174         0.289953
 C        -1.883318        -0.777952         0.679150
 C        -1.682817         0.408611        -0.343605
 C        -1.109170        -0.614349        -1.317236
 C        -0.455320        -1.282654         0.108372
 C         0.098902        -2.676067         0.386104
 C         0.359067         0.006222         0.585177
 O         1.345862         0.283331         1.238199
 O        -0.534207         0.943524         0.224283
 H        -3.078911        -2.526176         0.028499
 H        -3.931967        -1.582435         1.101761
 H        -3.617754        -1.081222        -0.696601
 H        -1.944282        -0.491068         1.722632
 H        -2.491105         1.201086        -0.497631
 H        -1.695555        -1.231811        -1.935600
 H        -0.332892        -0.141238        -1.985989
 H        -0.349998        -3.209591         1.212737
 H        -0.167618        -3.125943        -0.485105
 H         1.196851        -2.644740         0.522489
