19
Iteration:  1922
 C        -3.163526        -1.680125         0.278632
 C        -1.990726        -0.710478         0.383439
 C        -1.555453         0.382856        -0.641121
 C        -0.541102        -0.571485        -1.407889
 C        -0.457040        -1.177469         0.125421
 C         0.003835        -2.527229         0.666639
 C         0.129111         0.040704         0.707684
 O         1.028869        -0.059400         1.514248
 O        -0.525473         1.178771         0.142608
 H        -3.743969        -1.871781        -0.644988
 H        -2.931018        -2.686065         0.752898
 H        -3.933722        -1.194940         1.046150
 H        -2.106127        -0.240960         1.371496
 H        -2.155332         1.046540        -1.251885
 H        -1.135345        -0.988738        -2.208388
 H         0.240879        -0.068613        -1.990771
 H         0.666624        -3.010000        -0.077860
 H         0.511182        -2.469177         1.540309
 H        -0.884942        -3.170163         0.643110
