19
Iteration:  3187charge 0 multiplicity 1
 C        -3.199785        -1.712244        -0.010846
 C        -2.042969        -0.821611         0.488866
 C        -1.583631         0.363638        -0.423663
 C        -0.688779        -0.454667        -1.252843
 C        -0.436153        -1.222481         0.136566
 C         0.029432        -2.599459         0.387631
 C         0.200129         0.039879         0.785325
 O         1.314212         0.186505         1.159172
 O        -0.699510         1.106846         0.575477
 H        -3.783549        -1.744706         0.936761
 H        -3.922277        -1.350019        -0.679940
 H        -2.902552        -2.669302        -0.479616
 H        -2.184845        -0.588263         1.531910
 H        -2.272761         1.064877        -0.863082
 H        -1.144184        -1.176480        -1.986812
 H         0.150911         0.087667        -1.598134
 H        -0.672086        -3.285226        -0.135259
 H         1.011403        -2.853761        -0.191841
 H         0.231299        -2.949440         1.432337
