19
Iteration:  2654
 C        -3.120630        -1.585472         0.114595
 C        -1.975038        -0.645204         0.508960
 C        -1.512620         0.388434        -0.604629
 C        -0.764156        -0.782574        -1.321935
 C        -0.473592        -1.233703         0.266400
 C         0.059230        -2.641295         0.397167
 C         0.234538         0.071661         0.793167
 O         1.042663         0.235425         1.649995
 O        -0.556710         1.092709         0.078086
 H        -3.237411        -1.609097        -1.027725
 H        -2.919325        -2.627796         0.388198
 H        -4.183168        -1.414633         0.504584
 H        -2.162802        -0.193052         1.498605
 H        -2.283334         0.996281        -0.993924
 H        -1.366979        -1.508994        -1.815812
 H        -0.005410        -0.459056        -2.075472
 H        -0.441603        -3.176654        -0.384385
 H         1.198363        -2.586166         0.139169
 H        -0.062920        -3.184916         1.328677
