19
Iteration:  3737charge 0 multiplicity 1
 C        -3.099533        -1.846272         0.104634
 C        -1.947772        -0.921229         0.610734
 C        -1.750132         0.506869        -0.121022
 C        -0.914224        -0.358940        -1.277467
 C        -0.554102        -1.163048         0.003821
 C         0.149313        -2.505737         0.171722
 C         0.198803        -0.005202         0.659138
 O         1.278553         0.057161         1.226261
 O        -0.518007         1.113135         0.471082
 H        -3.594986        -1.494992        -0.887973
 H        -2.775044        -2.879873        -0.335788
 H        -3.872794        -1.865521         0.908945
 H        -1.998432        -0.852587         1.688552
 H        -2.466007         1.334002        -0.248265
 H        -1.560091        -1.047304        -1.961663
 H        -0.084859         0.262851        -1.835007
 H         0.950542        -2.690520        -0.515616
 H         0.600998        -2.396721         1.187854
 H        -0.668765        -3.231817         0.074584
