19
Iteration:  3712charge 0 multiplicity 1
 C        -3.089074        -1.720803        -0.016058
 C        -1.994945        -0.836194         0.604074
 C        -1.699646         0.346024        -0.168134
 C        -0.955824        -0.467374        -1.198168
 C        -0.508932        -1.208225         0.145725
 C         0.063272        -2.621712         0.135888
 C         0.299459         0.072340         0.734982
 O         1.445265         0.199948         1.112410
 O        -0.680082         1.083740         0.584682
 H        -3.630006        -1.289182        -0.846310
 H        -2.688634        -2.598804        -0.597866
 H        -3.742063        -1.998832         0.808229
 H        -2.187027        -0.695362         1.685252
 H        -2.451843         1.076927        -0.523370
 H        -1.659760        -0.984644        -1.817027
 H        -0.235588         0.176100        -1.892061
 H         0.920615        -2.527685        -0.484997
 H         0.379396        -2.911011         1.092286
 H        -0.628919        -3.213227        -0.378259
