19
Iteration:  2965
 C        -3.149078        -1.749066        -0.063982
 C        -2.134776        -0.725446         0.393366
 C        -1.572380         0.423797        -0.443154
 C        -0.668214        -0.543488        -1.309984
 C        -0.533990        -1.180400         0.228280
 C         0.109306        -2.482827         0.654292
 C         0.209630         0.017309         0.668396
 O         1.273000         0.017089         1.184928
 O        -0.668835         1.117931         0.470953
 H        -3.961657        -1.472743        -0.734630
 H        -2.517577        -2.613298        -0.470003
 H        -3.562458        -2.159252         0.840838
 H        -2.348263        -0.342583         1.361506
 H        -2.336026         1.213243        -0.784058
 H        -1.226817        -1.155453        -1.930014
 H         0.041485         0.100277        -1.838098
 H        -0.361958        -3.461246         0.221742
 H         1.188055        -2.555878         0.554063
 H        -0.024713        -2.492362         1.802518
