19
Iteration:  1013charge 0 multiplicity 1
 C        -3.079436        -1.592711         0.801970
 C        -1.827227        -0.670758         0.851134
 C        -1.741376         0.394865        -0.179723
 C        -1.346336        -0.508689        -1.233094
 C        -0.516521        -1.276065        -0.019509
 C         0.003498        -2.693340         0.142288
 C         0.367825        -0.025670         0.380688
 O         1.458861         0.092846         0.873603
 O        -0.455871         1.097602         0.200231
 H        -3.188394        -2.014528         1.818713
 H        -3.880682        -0.921399         0.527635
 H        -3.080541        -2.433648         0.098480
 H        -1.695156        -0.308756         1.880458
 H        -2.443580         1.252406        -0.233528
 H        -2.263272        -0.838136        -1.755325
 H        -0.612169        -0.013028        -1.941837
 H         0.398045        -3.077703        -0.810633
 H         0.965089        -2.716691         0.848030
 H        -0.872675        -3.171757         0.484161
