19
Iteration:  4873charge 0 multiplicity 1
 C        -3.070299        -1.742273        -0.020883
 C        -1.969621        -0.869710         0.565115
 C        -1.742771         0.450803        -0.183677
 C        -0.789622        -0.405202        -1.158714
 C        -0.483657        -1.166988         0.118420
 C         0.051722        -2.615626         0.087608
 C         0.211766         0.068187         0.755619
 O         1.395253         0.194850         1.006681
 O        -0.755065         0.997649         0.725875
 H        -2.915573        -2.797754         0.369130
 H        -4.091177        -1.461951         0.199839
 H        -3.019194        -1.735937        -1.124309
 H        -1.943284        -0.787516         1.665646
 H        -2.402132         1.269828        -0.504169
 H        -1.363471        -0.958067        -1.937902
 H         0.105897         0.041372        -1.682658
 H        -0.761588        -3.240098        -0.261767
 H         0.963556        -2.786871        -0.464290
 H         0.376525        -2.909836         1.114994
