19
Iteration:   282
 C        -3.046251        -1.456977         1.543083
 C        -1.721622        -0.728814         1.043772
 C        -1.796416         0.428515        -0.008134
 C        -1.467041        -0.535093        -1.157427
 C        -0.714991        -1.202725        -0.006354
 C         0.041088        -2.605451        -0.022104
 C         0.390333        -0.054191         0.110474
 O         1.566743        -0.092358         0.297789
 O        -0.462298         1.104036         0.040120
 H        -3.562976        -2.137722         0.861921
 H        -2.818624        -2.160637         2.390211
 H        -3.789312        -0.758729         1.981520
 H        -1.252912        -0.329554         1.966970
 H        -2.516826         1.258431         0.116352
 H        -2.258030        -1.059824        -1.699734
 H        -0.910484         0.003493        -1.977622
 H         1.088606        -2.494343        -0.512321
 H         0.252505        -2.999859         0.989908
 H        -0.426490        -3.320148        -0.570388
