19
Iteration:  1390
 C        -3.111401        -1.550581         0.433497
 C        -1.867553        -0.714584         0.775589
 C        -1.766089         0.403734        -0.284826
 C        -1.084461        -0.576445        -1.263993
 C        -0.535851        -1.234980         0.015453
 C         0.030194        -2.613022         0.317508
 C         0.358770        -0.017342         0.530753
 O         1.370288         0.125373         1.191121
 O        -0.502303         1.066899         0.135371
 H        -3.781893        -1.682198         1.330938
 H        -3.538788        -1.095163        -0.429924
 H        -2.843061        -2.567171         0.039279
 H        -1.854417        -0.359781         1.811795
 H        -2.554755         1.191423        -0.567052
 H        -1.799429        -1.325708        -1.574003
 H        -0.461684        -0.154543        -2.159862
 H         0.921473        -2.914646        -0.328031
 H         0.199399        -2.803859         1.431155
 H        -0.761684        -3.384528        -0.029843
