19
Iteration:  3685charge 0 multiplicity 1
 C        -3.166962        -1.752600         0.007615
 C        -1.996703        -0.844254         0.638127
 C        -1.615474         0.439808        -0.206859
 C        -0.858050        -0.508615        -1.126527
 C        -0.502585        -1.196061         0.151317
 C         0.080985        -2.580928         0.125168
 C         0.242640        -0.002298         0.725741
 O         1.375832         0.249463         0.992122
 O        -0.691083         1.047048         0.648608
 H        -3.784833        -1.033780        -0.555743
 H        -2.871518        -2.310641        -0.833802
 H        -3.712338        -2.344735         0.750358
 H        -2.067696        -0.860370         1.735716
 H        -2.217768         1.208810        -0.683103
 H        -1.517336        -1.021036        -1.873973
 H        -0.085097        -0.152368        -1.698671
 H         1.171442        -2.392276        -0.164909
 H         0.031613        -3.108099         1.145386
 H        -0.422207        -3.047450        -0.789606
