19
Iteration:  2202charge 0 multiplicity 1
 C        -2.995259        -1.660636        -0.056187
 C        -1.932306        -0.812137         0.510636
 C        -1.533569         0.502870        -0.454029
 C        -0.831483        -0.648394        -1.400228
 C        -0.512436        -1.183491         0.142151
 C        -0.092129        -2.578424         0.741240
 C         0.205766         0.051949         0.655515
 O         1.048622         0.149720         1.510227
 O        -0.449184         1.092276         0.151355
 H        -2.667637        -2.325067        -0.863293
 H        -3.199395        -2.488637         0.749470
 H        -3.924369        -1.094186        -0.212655
 H        -2.170621        -0.426852         1.506303
 H        -2.223022         1.259051        -0.785879
 H        -1.491572        -1.199676        -2.076150
 H         0.097468        -0.398527        -1.911645
 H        -0.299102        -3.375893        -0.002916
 H         0.969316        -2.614842         0.803362
 H        -0.698966        -2.922429         1.585147
