19
Iteration:    97
 C        -2.903600        -1.430250         1.394153
 C        -1.565981        -0.636350         1.179807
 C        -1.786538         0.401411         0.138391
 C        -1.833524        -0.683872        -0.979555
 C        -0.593035        -1.177369        -0.012858
 C        -0.085197        -2.597423        -0.103343
 C         0.414601        -0.044849         0.050460
 O         1.592222         0.035019         0.134047
 O        -0.360889         1.016158         0.135022
 H        -3.268798        -1.830439         2.321617
 H        -3.749607        -0.747143         1.088970
 H        -2.970904        -2.266027         0.714387
 H        -1.007540        -0.369383         2.121001
 H        -2.411613         1.283216         0.181784
 H        -2.633155        -1.364264        -0.935414
 H        -1.897927        -0.402209        -2.022352
 H        -0.224348        -2.829109        -1.277756
 H         1.022625        -2.671332         0.004790
 H        -0.610174        -3.262764         0.491325
