19
Iteration:  4529
 C        -3.088366        -1.844309         0.384932
 C        -1.928665        -0.824713         0.460839
 C        -1.755890         0.432187        -0.338595
 C        -0.948962        -0.324540        -1.348497
 C        -0.451950        -1.113823        -0.022617
 C         0.261701        -2.416525        -0.064203
 C         0.170744        -0.043546         0.740146
 O         1.068708        -0.096756         1.465498
 O        -0.481044         1.158698         0.498604
 H        -2.733825        -2.839500         0.770735
 H        -3.909034        -1.706469         1.161724
 H        -3.384200        -2.050838        -0.620199
 H        -1.811536        -0.680332         1.532741
 H        -2.511309         1.194692        -0.561473
 H        -1.448890        -0.980056        -2.102811
 H        -0.261689         0.291387        -1.950007
 H        -0.329240        -3.173063        -0.646046
 H         1.176326        -2.222868        -0.609302
 H         0.387868        -2.861668         0.912043
