19
Iteration:  2467charge 0 multiplicity 1
 C        -3.289636        -1.629462        -0.100267
 C        -2.082554        -0.686273         0.388182
 C        -1.572144         0.371387        -0.484341
 C        -0.646467        -0.683234        -1.275651
 C        -0.569082        -1.160956         0.200696
 C         0.120700        -2.360678         0.691385
 C         0.187376        -0.056353         0.797008
 O         1.248322         0.070372         1.327313
 O        -0.541481         1.012320         0.283142
 H        -3.258386        -1.750330        -1.205137
 H        -3.246570        -2.623864         0.472156
 H        -4.311365        -1.203938         0.213340
 H        -2.466636        -0.270416         1.332777
 H        -2.126611         1.073316        -1.142711
 H        -1.083327        -1.391389        -1.945866
 H         0.262619        -0.312780        -1.797981
 H         0.009545        -3.265133         0.119970
 H         1.118488        -2.151538         0.964197
 H        -0.299275        -2.624343         1.664150
