19
Iteration:  3481
 C        -3.078536        -1.775380         0.000071
 C        -1.966671        -0.831847         0.588415
 C        -1.667911         0.424913        -0.187596
 C        -0.989827        -0.404037        -1.335204
 C        -0.524374        -1.119192         0.140617
 C         0.074181        -2.457101         0.316495
 C         0.262185        -0.020189         0.687257
 O         1.361350         0.032187         1.190105
 O        -0.610172         1.092542         0.468229
 H        -2.564529        -2.750831        -0.253904
 H        -3.855822        -2.035608         0.727222
 H        -3.470902        -1.472171        -1.015053
 H        -2.198598        -0.742680         1.670727
 H        -2.438390         1.139674        -0.509809
 H        -1.730068        -1.145941        -1.737617
 H        -0.252560         0.076004        -1.990091
 H         1.059141        -2.612566        -0.091362
 H         0.270294        -2.639094         1.317893
 H        -0.457399        -3.275389        -0.120236
