19
Iteration:  3177charge 0 multiplicity 1
 C        -3.142821        -1.720281         0.065356
 C        -1.966369        -0.812352         0.367498
 C        -1.607997         0.437970        -0.440275
 C        -0.743980        -0.504534        -1.237459
 C        -0.451169        -1.141734         0.170948
 C         0.013455        -2.663557         0.320388
 C         0.214329         0.037204         0.806656
 O         1.346188         0.186891         1.260912
 O        -0.738828         1.109677         0.538635
 H        -3.700854        -2.163782         0.939932
 H        -3.693904        -1.141853        -0.629608
 H        -2.842423        -2.749876        -0.308495
 H        -2.195927        -0.545920         1.389372
 H        -2.263556         1.056340        -1.073646
 H        -1.436305        -1.108751        -1.949064
 H         0.122949        -0.180222        -1.803817
 H        -0.867408        -3.246609         0.158729
 H         0.821414        -2.930736        -0.432949
 H         0.240574        -2.976903         1.335963
