19
Iteration:   809
 C        -3.014419        -1.644333         0.950544
 C        -1.805677        -0.714093         0.927572
 C        -1.809242         0.448463        -0.110993
 C        -1.367196        -0.483337        -1.179426
 C        -0.586347        -1.221748        -0.008436
 C        -0.044460        -2.706251         0.240800
 C         0.419739        -0.049127         0.242447
 O         1.516629         0.075125         0.755517
 O        -0.409444         1.138202         0.010973
 H        -2.892777        -2.710980         1.017206
 H        -3.698689        -1.195720         1.702491
 H        -3.627254        -1.461583         0.067234
 H        -1.683587        -0.467261         1.988848
 H        -2.625372         1.207845        -0.301262
 H        -2.274838        -0.889207        -1.560842
 H        -0.808842        -0.022034        -1.998965
 H         0.117091        -3.388943        -0.573908
 H         0.827366        -2.480939         0.789129
 H        -0.849702        -3.220748         0.866511
