19
Iteration:  3110
 C        -3.102403        -1.668305         0.207818
 C        -1.945565        -0.740021         0.532438
 C        -1.610760         0.440965        -0.467404
 C        -0.911752        -0.636216        -1.370167
 C        -0.472507        -1.247236        -0.032031
 C         0.247676        -2.448493         0.300714
 C         0.198967         0.048169         0.678738
 O         0.953140        -0.029626         1.629357
 O        -0.460030         1.168002         0.281453
 H        -2.887999        -2.746312         0.408706
 H        -3.963971        -1.285346         0.688627
 H        -3.279009        -1.712069        -0.864731
 H        -1.944380        -0.429871         1.551235
 H        -2.263754         1.191060        -0.744756
 H        -1.661492        -1.136222        -1.979131
 H        -0.172267        -0.244006        -2.036425
 H        -0.503343        -3.201383         0.476651
 H         0.899903        -2.845348        -0.504683
 H         0.723326        -2.451795         1.283818
