19
Iteration:  4336charge 0 multiplicity 1
 C        -3.087752        -1.785385         0.218068
 C        -1.861774        -0.841098         0.607428
 C        -1.816514         0.419408        -0.239724
 C        -0.983167        -0.411979        -1.311031
 C        -0.496484        -1.148106        -0.005543
 C         0.184796        -2.522990        -0.067375
 C         0.187294         0.026630         0.772072
 O         1.278070         0.101792         1.414825
 O        -0.549569         1.068927         0.476040
 H        -2.803219        -2.828905         0.211887
 H        -3.978286        -1.752139         0.854784
 H        -3.553384        -1.527624        -0.731963
 H        -1.892957        -0.656779         1.708627
 H        -2.613498         1.158206        -0.537272
 H        -1.491047        -1.051920        -2.051566
 H        -0.207935         0.033168        -1.931076
 H         0.097123        -2.728387        -1.084202
 H         1.199705        -2.524094         0.262138
 H        -0.242106        -3.348668         0.419488
