19
Iteration:  4186charge 0 multiplicity 1
 C        -3.073347        -1.874357         0.053996
 C        -1.999307        -0.858255         0.532987
 C        -1.852806         0.527874        -0.080711
 C        -0.918652        -0.264719        -1.265242
 C        -0.530076        -1.163085         0.085785
 C         0.208283        -2.552142         0.153076
 C         0.227934        -0.046749         0.687954
 O         1.410419         0.104045         0.958691
 O        -0.636185         1.047321         0.696027
 H        -3.517094        -2.525096         0.815127
 H        -3.846250        -1.229146        -0.266916
 H        -2.869627        -2.579265        -0.789300
 H        -1.979617        -0.694958         1.610738
 H        -2.695500         1.286618        -0.062606
 H        -1.677670        -0.856087        -1.755922
 H        -0.054150         0.059552        -1.741105
 H         1.278588        -2.344374         0.312654
 H        -0.030300        -3.134170         1.149002
 H        -0.052896        -3.285381        -0.713513
