19
Iteration:  3374
 C        -3.060767        -1.696767         0.156397
 C        -1.940813        -0.777070         0.581275
 C        -1.709339         0.446509        -0.319193
 C        -1.021549        -0.497702        -1.307763
 C        -0.533556        -1.169745        -0.021661
 C         0.196868        -2.406383         0.252406
 C         0.226101        -0.005681         0.709345
 O         1.184611        -0.053728         1.454240
 O        -0.495687         1.075093         0.289533
 H        -3.704403        -1.159413        -0.503775
 H        -2.753702        -2.618101        -0.340536
 H        -3.537769        -2.112319         1.056482
 H        -1.846686        -0.666666         1.641135
 H        -2.482070         1.156356        -0.727387
 H        -1.900841        -1.058771        -1.651802
 H        -0.355254        -0.077814        -2.096788
 H         1.266111        -2.027153         0.356584
 H        -0.086180        -2.903402         1.323270
 H         0.179405        -3.256114        -0.518005
