19
Iteration:    95charge 0 multiplicity 1
 C        -2.894207        -1.437753         1.398263
 C        -1.563178        -0.637817         1.171750
 C        -1.779403         0.427483         0.136002
 C        -1.841204        -0.688488        -0.958038
 C        -0.586831        -1.184551        -0.022859
 C        -0.095827        -2.596747        -0.107043
 C         0.409325        -0.058232         0.028895
 O         1.583289         0.046730         0.145488
 O        -0.354179         1.014607         0.131815
 H        -3.342627        -1.855354         2.310846
 H        -3.779320        -0.751328         1.078194
 H        -2.970863        -2.301543         0.712586
 H        -0.986273        -0.377845         2.104867
 H        -2.366962         1.322125         0.245713
 H        -2.633151        -1.482995        -0.921190
 H        -1.863896        -0.344920        -2.056724
 H        -0.143392        -2.823711        -1.280671
 H         1.005594        -2.671626         0.117149
 H        -0.658508        -3.245305         0.486229
