19
Iteration:  2883charge 0 multiplicity 1
 C        -3.075365        -1.621965         0.164522
 C        -1.900191        -0.701667         0.454695
 C        -1.563286         0.358304        -0.592123
 C        -0.753533        -0.741461        -1.407863
 C        -0.467497        -1.219824         0.101182
 C         0.021146        -2.548854         0.449753
 C         0.166720         0.045259         0.750308
 O         0.987919         0.222899         1.652566
 O        -0.501122         1.071835         0.224727
 H        -3.607870        -1.749983         1.115673
 H        -3.782883        -1.309050        -0.502534
 H        -2.712268        -2.627911        -0.088581
 H        -1.986872        -0.188818         1.483063
 H        -2.253719         1.031645        -0.990650
 H        -1.599365        -1.114054        -2.107134
 H        -0.018194        -0.456848        -2.213567
 H        -0.557644        -3.362447         0.034248
 H         0.983109        -2.625313        -0.245078
 H         0.292908        -2.806621         1.487390
