19
Iteration:  3518charge 0 multiplicity 1
 C        -3.139952        -1.723339         0.210723
 C        -1.978852        -0.837585         0.541776
 C        -1.613206         0.436553        -0.256592
 C        -0.927681        -0.398935        -1.336914
 C        -0.504689        -1.189730         0.049074
 C         0.270226        -2.458134         0.143118
 C         0.167298        -0.034113         0.695122
 O         1.167198        -0.027858         1.361420
 O        -0.578581         1.114903         0.413567
 H        -3.027647        -2.661347         0.709832
 H        -4.147118        -1.354374         0.458092
 H        -3.150818        -1.907128        -0.829802
 H        -1.873652        -0.618011         1.580845
 H        -2.449021         1.107355        -0.471547
 H        -1.540694        -1.037693        -1.910250
 H        -0.243173         0.054077        -2.042062
 H         0.878600        -2.365853        -0.765084
 H         0.881936        -2.447954         1.111632
 H        -0.342215        -3.361967         0.255681
