19
Iteration:  2876
 C        -3.028599        -1.647701         0.242839
 C        -1.935073        -0.638941         0.421163
 C        -1.538029         0.383694        -0.657027
 C        -0.805292        -0.733623        -1.412158
 C        -0.466534        -1.195446         0.090221
 C         0.074180        -2.521259         0.405737
 C         0.190135         0.038481         0.759542
 O         0.951265         0.155772         1.665833
 O        -0.499438         1.070087         0.232087
 H        -3.549222        -1.879747         1.155607
 H        -3.836236        -1.261647        -0.470466
 H        -2.721161        -2.589110        -0.245335
 H        -2.042298        -0.218157         1.415287
 H        -2.392034         1.042547        -1.021002
 H        -1.444558        -1.496567        -1.929458
 H         0.029359        -0.477487        -2.021059
 H        -0.694268        -3.318773         0.121343
 H         1.078729        -2.711383        -0.044439
 H         0.135714        -2.581069         1.520942
