19
Iteration:   743charge 0 multiplicity 1
 C        -3.239423        -1.488990         1.214111
 C        -1.977724        -0.662172         0.892857
 C        -1.780247         0.394221        -0.207484
 C        -1.230911        -0.571089        -1.262101
 C        -0.566581        -1.210619         0.047536
 C         0.202177        -2.635687         0.054803
 C         0.328112        -0.027245         0.435707
 O         1.521426        -0.042483         0.592246
 O        -0.435430         1.115057         0.115399
 H        -2.992219        -2.204523         2.002554
 H        -3.909131        -0.712261         1.609203
 H        -3.736004        -1.852971         0.320917
 H        -1.579399        -0.161913         1.773990
 H        -2.591649         1.117371        -0.291395
 H        -1.887754        -1.350726        -1.615729
 H        -0.651671        -0.295035        -2.116536
 H         1.293958        -2.729481         0.024704
 H        -0.289546        -3.174551         0.825336
 H        -0.157710        -3.043213        -0.948112
