19
Iteration:  1243
 C        -3.166725        -1.599696         0.649721
 C        -1.910423        -0.705708         0.808716
 C        -1.685008         0.454909        -0.274209
 C        -1.106552        -0.662407        -1.224980
 C        -0.557058        -1.203799         0.093687
 C         0.047046        -2.601176         0.135562
 C         0.293847         0.013956         0.484110
 O         1.393677         0.059185         0.980072
 O        -0.448997         1.103001         0.199033
 H        -3.541054        -1.678731        -0.389961
 H        -3.152101        -2.651665         1.078877
 H        -3.853798        -1.050900         1.334254
 H        -1.866273        -0.211538         1.780226
 H        -2.493431         1.195635        -0.366433
 H        -1.772171        -1.173114        -1.914314
 H        -0.388156        -0.142236        -1.868493
 H        -0.175153        -3.193183        -0.747406
 H         1.147233        -2.492230         0.246743
 H        -0.304665        -3.212316         0.939465
