19
Iteration:  4301charge 0 multiplicity 1
 C        -3.100717        -1.848152         0.406120
 C        -1.875747        -0.774882         0.546427
 C        -1.780120         0.479419        -0.259331
 C        -0.988400        -0.394798        -1.426599
 C        -0.420116        -1.078694        -0.113002
 C         0.266966        -2.456704        -0.005987
 C         0.126432        -0.014477         0.656981
 O         1.087695        -0.111713         1.443803
 O        -0.513050         1.138566         0.503119
 H        -2.566126        -2.776281         0.408604
 H        -3.734588        -1.708275         1.291638
 H        -3.505755        -1.855844        -0.535767
 H        -1.722591        -0.664071         1.639420
 H        -2.493615         1.244128        -0.511762
 H        -1.719602        -1.070803        -1.937894
 H        -0.087914         0.070363        -1.964160
 H         0.746394        -2.657137        -1.007830
 H         1.172206        -2.333947         0.562842
 H        -0.346067        -3.279715         0.303162
