19
Iteration:   932
 C        -3.078697        -1.542162         0.841657
 C        -1.813805        -0.785827         0.894126
 C        -1.735674         0.417328        -0.189050
 C        -1.378862        -0.571507        -1.209783
 C        -0.599482        -1.185533         0.070433
 C         0.048292        -2.523888         0.105964
 C         0.337057        -0.008771         0.363551
 O         1.476951         0.009036         0.740837
 O        -0.409357         1.074697         0.225696
 H        -3.559432        -1.779598         1.812307
 H        -3.877969        -0.962980         0.311684
 H        -3.028999        -2.495165         0.241736
 H        -1.698507        -0.506546         1.961579
 H        -2.329912         1.314571        -0.306320
 H        -2.201181        -1.281808        -1.356346
 H        -0.856789        -0.349318        -2.130368
 H         0.767436        -2.412263         0.937956
 H        -0.676010        -3.303855         0.329273
 H         0.734854        -2.822019        -0.768679
