19
Iteration:  1325charge 0 multiplicity 1
 C        -3.203667        -1.548662         0.556939
 C        -2.009034        -0.710507         0.673157
 C        -1.765514         0.426491        -0.351466
 C        -0.932031        -0.548869        -1.307239
 C        -0.580416        -1.228567         0.130986
 C         0.162861        -2.564482         0.334136
 C         0.279251        -0.035421         0.498825
 O         1.417257         0.009816         0.881040
 O        -0.522763         1.073025         0.395778
 H        -4.156804        -1.038704         0.381598
 H        -3.037465        -2.283925        -0.162251
 H        -3.491290        -2.053866         1.474095
 H        -1.859989        -0.286211         1.675955
 H        -2.614620         1.109028        -0.617197
 H        -1.578144        -1.221750        -1.848012
 H        -0.188799         0.025508        -1.937277
 H         0.255859        -2.802164         1.407465
 H        -0.515202        -3.400464         0.006318
 H         1.150659        -2.517234        -0.203044
