19
Iteration:   235
 C        -2.928589        -1.449338         1.401332
 C        -1.663794        -0.698953         1.137752
 C        -1.759922         0.500938        -0.041194
 C        -1.640616        -0.695451        -1.057548
 C        -0.653298        -1.201215         0.065168
 C        -0.113605        -2.643122        -0.118070
 C         0.404374        -0.047041         0.146614
 O         1.616151         0.021202         0.264746
 O        -0.427822         1.134988         0.113932
 H        -2.950989        -2.454392         0.971539
 H        -3.293457        -1.653186         2.446045
 H        -3.801147        -0.994078         0.923711
 H        -1.130082        -0.511455         2.063855
 H        -2.510132         1.241257        -0.118553
 H        -2.605137        -1.252388        -1.153566
 H        -1.143685        -0.766078        -2.099929
 H         0.822458        -2.715478         0.492888
 H        -0.709656        -3.528150         0.170413
 H         0.278944        -2.712171        -1.163070
