19
Iteration:  2375charge 0 multiplicity 1
 C        -3.120932        -1.696393         0.341540
 C        -1.983871        -0.658816         0.355500
 C        -1.515989         0.425160        -0.794170
 C        -0.518239        -0.660106        -1.281865
 C        -0.494008        -1.213441         0.149513
 C        -0.076225        -2.671598         0.378724
 C         0.159115         0.081541         0.763815
 O         0.977982         0.151924         1.649826
 O        -0.536005         1.119617         0.187523
 H        -3.117505        -2.312803        -0.565828
 H        -3.130487        -2.206216         1.302741
 H        -4.091584        -1.255707         0.417857
 H        -2.166377         0.091294         1.169569
 H        -1.937532         1.347714        -1.156062
 H        -0.941056        -1.406732        -2.002740
 H         0.449606        -0.533523        -1.708617
 H        -0.906762        -3.240651        -0.036906
 H         0.889145        -2.845861        -0.144297
 H         0.160724        -2.914390         1.419524
