19
Iteration:   774charge 0 multiplicity 1
 C        -3.001377        -1.449846         1.007895
 C        -1.793261        -0.638592         0.955163
 C        -1.713128         0.435207        -0.222551
 C        -1.367871        -0.725106        -1.152994
 C        -0.675031        -1.207695         0.024325
 C         0.065081        -2.496033         0.040362
 C         0.302900        -0.077153         0.312566
 O         1.436907         0.020838         0.712087
 O        -0.416744         1.033820         0.160466
 H        -2.970092        -2.539294         1.293554
 H        -3.661221        -1.053590         1.741660
 H        -3.503784        -1.353676         0.048063
 H        -1.379622        -0.227352         1.882869
 H        -2.513906         1.105816        -0.425789
 H        -2.291334        -1.360958        -1.363356
 H        -0.787542        -0.592814        -2.060157
 H         1.054047        -2.538129        -0.479169
 H         0.175202        -2.798472         1.084851
 H        -0.553939        -3.269257        -0.244951
