19
Iteration:  2272charge 0 multiplicity 1
 C        -3.243236        -1.603266        -0.019561
 C        -2.143689        -0.656247         0.349924
 C        -1.520008         0.413312        -0.560728
 C        -0.494473        -0.754164        -1.232633
 C        -0.547995        -1.244630         0.270728
 C         0.071332        -2.638445         0.635463
 C         0.134066         0.094067         0.817389
 O         1.234700         0.175020         1.279328
 O        -0.631638         1.126306         0.319246
 H        -3.100039        -1.986162        -1.015773
 H        -3.200426        -2.436633         0.578712
 H        -4.166047        -1.053879         0.057112
 H        -2.296684        -0.399837         1.405743
 H        -2.076365         1.225988        -1.133138
 H        -1.132246        -1.367428        -1.958845
 H         0.550861        -0.613993        -1.666698
 H        -0.647087        -3.441502         0.256322
 H         1.053126        -2.822122         0.108305
 H        -0.023876        -2.905041         1.712558
