19
Iteration:  3762
 C        -3.031941        -1.793853         0.263032
 C        -1.919074        -0.819451         0.590648
 C        -1.763501         0.535758        -0.342353
 C        -1.049076        -0.319788        -1.386174
 C        -0.490439        -1.126641        -0.024829
 C         0.271167        -2.454444         0.110885
 C         0.264666        -0.033916         0.679854
 O         1.232930        -0.141461         1.397563
 O        -0.641670         1.083245         0.494605
 H        -3.330435        -1.760793        -0.827997
 H        -2.687738        -2.836038         0.328865
 H        -3.966699        -1.649278         0.889890
 H        -1.931516        -0.553192         1.660789
 H        -2.460557         1.321785        -0.626201
 H        -1.825661        -0.974004        -1.872693
 H        -0.322369         0.137117        -1.992471
 H         1.086513        -2.639208        -0.704904
 H         0.831312        -2.370436         1.105463
 H        -0.551784        -3.262270         0.126436
