19
Iteration:  2155
 C        -3.298148        -1.569264         0.152838
 C        -2.020184        -0.655222         0.370606
 C        -1.492483         0.369318        -0.611487
 C        -0.532949        -0.795828        -1.306642
 C        -0.563705        -1.188905         0.236800
 C         0.201186        -2.496798         0.459511
 C         0.112247        -0.016151         0.775554
 O         0.995588         0.060693         1.571810
 O        -0.520390         1.161202         0.176290
 H        -3.329782        -2.244023        -0.766246
 H        -3.529562        -2.350094         1.007650
 H        -4.201144        -0.835127         0.144199
 H        -1.959573        -0.137198         1.352728
 H        -2.180520         1.074196        -1.299701
 H        -0.977395        -1.566387        -1.894817
 H         0.392695        -0.417636        -1.761366
 H        -0.396326        -3.251581         0.055908
 H         1.154030        -2.439055        -0.144860
 H         0.231390        -2.808091         1.462742
