19
Iteration:     4
 C        -2.804793        -1.549905         1.557577
 C        -1.612687        -0.645609         1.157984
 C        -1.780892         0.510787         0.128526
 C        -1.691773        -0.560324        -1.013388
 C        -0.664422        -1.195755        -0.006907
 C        -0.107425        -2.617526        -0.092561
 C         0.359662        -0.060336         0.048984
 O         1.542165        -0.055050        -0.014194
 O        -0.411704         1.062602         0.148497
 H        -3.392964        -0.858909         2.227695
 H        -3.421796        -1.758102         0.686920
 H        -2.434941        -2.439497         2.123841
 H        -1.012395        -0.393117         2.020536
 H        -2.485810         1.357721         0.216447
 H        -2.649711        -1.086195        -1.231585
 H        -1.400707        -0.243672        -2.036464
 H         0.595614        -2.896617         0.612757
 H        -0.950259        -3.326527        -0.018557
 H         0.395658        -2.718275        -1.122455
