19
Iteration:  2679charge 0 multiplicity 1
 C        -3.092664        -1.780988         0.050294
 C        -1.986789        -0.766452         0.442940
 C        -1.586372         0.423741        -0.617200
 C        -0.698877        -0.677114        -1.299125
 C        -0.505096        -1.206393         0.175639
 C        -0.084894        -2.548498         0.567529
 C         0.176165         0.098831         0.708892
 O         1.117687         0.209976         1.489897
 O        -0.417926         1.139524         0.258668
 H        -3.393173        -1.728743        -1.036446
 H        -3.014224        -2.887931         0.332305
 H        -4.059741        -1.457710         0.575208
 H        -2.136478        -0.534175         1.475520
 H        -2.316072         1.184071        -0.944268
 H        -1.379514        -1.412256        -1.880678
 H         0.074249        -0.312953        -1.949272
 H        -0.676397        -3.292921         0.100513
 H         0.956150        -2.724387         0.413531
 H        -0.217124        -2.594002         1.636950
