19
Iteration:  4390charge 0 multiplicity 1
 C        -3.107147        -1.827363        -0.011952
 C        -2.017549        -0.903431         0.539144
 C        -1.705117         0.425258        -0.085047
 C        -0.898267        -0.256825        -1.249079
 C        -0.465349        -1.163100         0.069858
 C         0.096183        -2.490866         0.118312
 C         0.211935        -0.040270         0.751827
 O         1.411118         0.133989         1.096901
 O        -0.675941         1.032598         0.637843
 H        -3.087366        -2.723867         0.566891
 H        -4.107401        -1.471302         0.242889
 H        -2.988599        -2.185410        -1.028515
 H        -2.138154        -0.802432         1.663535
 H        -2.462334         1.120330        -0.526157
 H        -1.429663        -0.982116        -1.942300
 H        -0.116191         0.364085        -1.759877
 H        -0.319083        -3.370987        -0.421504
 H         1.150648        -2.343795        -0.242481
 H         0.046082        -2.848550         1.149873
