19
Iteration:  2183charge 0 multiplicity 1
 C        -3.105691        -1.619992         0.003464
 C        -2.002611        -0.636651         0.419933
 C        -1.602732         0.380193        -0.555029
 C        -0.847019        -0.681590        -1.353103
 C        -0.517010        -1.223272         0.105687
 C         0.108939        -2.519743         0.604439
 C         0.224557        -0.030261         0.750288
 O         1.048593         0.131205         1.632263
 O        -0.406396         1.079743         0.173554
 H        -2.890650        -2.178967        -0.895164
 H        -3.344848        -2.344214         0.706357
 H        -4.029105        -1.145953        -0.225859
 H        -2.024807        -0.219605         1.441876
 H        -2.202406         1.089710        -1.031101
 H        -1.594007        -1.387940        -1.880252
 H        -0.141198        -0.383890        -2.137266
 H        -0.246410        -3.525209         0.149438
 H         1.169213        -2.352076         0.691859
 H        -0.384794        -2.609697         1.629675
