19
Iteration:  2124
 C        -3.348371        -1.538619         0.162983
 C        -1.998246        -0.679787         0.339158
 C        -1.493261         0.361819        -0.678144
 C        -0.527373        -0.680450        -1.369202
 C        -0.470618        -1.226927         0.191985
 C         0.112281        -2.661065         0.454394
 C         0.201245        -0.010516         0.844821
 O         1.073663         0.269056         1.624009
 O        -0.630009         0.998075         0.233127
 H        -3.397879        -1.945403        -0.848556
 H        -3.434740        -2.323186         1.008442
 H        -4.113426        -0.751680         0.304555
 H        -2.162636        -0.098477         1.274680
 H        -1.981450         1.084005        -1.420125
 H        -0.952691        -1.371851        -2.028779
 H         0.303454        -0.072538        -1.794634
 H        -0.746327        -3.281145         0.426668
 H         0.746659        -3.156658        -0.318523
 H         0.613116        -2.790703         1.384979
