19
Iteration:   139charge 0 multiplicity 1
 C        -2.950687        -1.505019         1.570672
 C        -1.726198        -0.702663         1.204481
 C        -1.763893         0.447778         0.026793
 C        -1.454552        -0.466404        -1.185090
 C        -0.654342        -1.228444         0.056824
 C        -0.013407        -2.578808        -0.076372
 C         0.287193        -0.050124         0.129840
 O         1.490259        -0.087169         0.002941
 O        -0.388492         1.063567         0.174474
 H        -2.796272        -2.103030         2.480133
 H        -3.923751        -0.940616         1.913010
 H        -3.233747        -2.315471         0.874702
 H        -1.263503        -0.242432         2.128525
 H        -2.526474         1.196042         0.038138
 H        -2.358061        -1.003297        -1.557991
 H        -0.745122        -0.045266        -1.989528
 H        -0.940115        -3.311414        -0.230673
 H         0.631253        -2.680543        -0.988488
 H         0.538841        -2.839533         0.759307
