19
Iteration:  4920
 C        -3.040019        -1.811478        -0.026114
 C        -1.966513        -0.918094         0.604191
 C        -1.742733         0.463148        -0.163493
 C        -0.963914        -0.336760        -1.209037
 C        -0.491136        -1.144714         0.038853
 C         0.153706        -2.518041         0.153659
 C         0.223695        -0.029503         0.721883
 O         1.360207         0.023593         1.161769
 O        -0.670894         1.152205         0.587571
 H        -3.113426        -2.795575         0.410201
 H        -3.919453        -1.207885         0.171745
 H        -3.026906        -1.858103        -1.080931
 H        -2.114482        -0.798979         1.639338
 H        -2.536937         1.176262        -0.392626
 H        -1.486833        -1.025583        -1.923333
 H        -0.201060         0.184806        -1.832777
 H        -0.598024        -3.282038        -0.203164
 H         1.129394        -2.672994        -0.363806
 H         0.447824        -2.647307         1.202360
