19
Iteration:  1924
 C        -3.170006        -1.672244         0.282724
 C        -1.989768        -0.711413         0.379240
 C        -1.539753         0.413756        -0.634885
 C        -0.555062        -0.565290        -1.401245
 C        -0.463166        -1.197144         0.144340
 C         0.022515        -2.516545         0.663695
 C         0.115559         0.027826         0.699558
 O         1.022305        -0.061778         1.507244
 O        -0.523758         1.173803         0.137746
 H        -3.702350        -1.843169        -0.693506
 H        -2.859804        -2.632465         0.698886
 H        -3.953147        -1.245235         1.012646
 H        -2.135952        -0.287750         1.369343
 H        -2.130392         0.986871        -1.285536
 H        -1.168875        -1.044665        -2.221883
 H         0.227381        -0.100970        -1.909969
 H         0.628511        -3.025896        -0.065558
 H         0.594979        -2.438414         1.544934
 H        -0.838191        -3.169804         0.673349
