19
Iteration:  4164charge 0 multiplicity 1
 C        -3.082857        -1.847952        -0.015623
 C        -2.055751        -0.907460         0.634715
 C        -1.715002         0.392213        -0.072398
 C        -0.959798        -0.258586        -1.237904
 C        -0.590086        -1.134884         0.053269
 C         0.188837        -2.383757         0.220097
 C         0.268769        -0.022317         0.657715
 O         1.451467         0.001297         0.901749
 O        -0.689207         1.070334         0.717193
 H        -3.254361        -2.744373         0.591261
 H        -4.030886        -1.439325        -0.231727
 H        -2.704947        -2.364106        -0.933165
 H        -1.932238        -0.789388         1.690631
 H        -2.404680         1.172000        -0.513803
 H        -1.629330        -0.801250        -1.901546
 H        -0.249378         0.424915        -1.547401
 H         1.263806        -2.218552         0.352920
 H        -0.068918        -2.871135         1.273456
 H        -0.149166        -3.223927        -0.512848
