19
Iteration:  2174charge 0 multiplicity 1
 C        -3.182464        -1.579975         0.050781
 C        -2.045046        -0.711390         0.442019
 C        -1.549353         0.353241        -0.645881
 C        -0.780867        -0.671979        -1.290807
 C        -0.498461        -1.190012         0.104284
 C         0.119637        -2.492166         0.562138
 C         0.205628         0.054864         0.767114
 O         1.055009         0.062940         1.647962
 O        -0.449830         1.057879         0.149957
 H        -2.876085        -2.183625        -0.814827
 H        -3.291929        -2.273656         0.835684
 H        -4.098118        -0.986822        -0.075302
 H        -2.320155        -0.130364         1.349136
 H        -2.176753         1.058818        -1.245269
 H        -1.609260        -1.300479        -1.786783
 H         0.052226        -0.427937        -1.964690
 H        -0.097986        -3.449445        -0.033069
 H         1.226106        -2.461079         0.458879
 H        -0.036250        -2.591501         1.684721
