19
Iteration:  3565
 C        -3.168107        -1.733277         0.383804
 C        -1.897091        -0.839208         0.595798
 C        -1.639625         0.452396        -0.365987
 C        -0.834038        -0.410536        -1.268435
 C        -0.424361        -1.170280        -0.024446
 C         0.182266        -2.626036        -0.196254
 C         0.223274        -0.007291         0.766079
 O         1.097089         0.162508         1.579713
 O        -0.602390         1.053201         0.362005
 H        -3.635771        -2.069077         1.355547
 H        -3.902673        -1.190696        -0.199357
 H        -2.958813        -2.632745        -0.248320
 H        -1.857078        -0.465708         1.678085
 H        -2.314154         1.150564        -0.865896
 H        -1.690036        -0.961195        -1.843254
 H        -0.094692        -0.129840        -1.992542
 H         0.778758        -2.508452        -1.140366
 H         0.796363        -2.893737         0.747420
 H        -0.660825        -3.397779        -0.184664
