19
Iteration:  1051
 C        -3.206875        -1.487404         0.678357
 C        -1.902554        -0.710510         0.870969
 C        -1.728233         0.392082        -0.153589
 C        -1.317000        -0.667674        -1.120242
 C        -0.561671        -1.170701         0.134099
 C         0.160671        -2.462526         0.108607
 C         0.350147        -0.022065         0.422286
 O         1.507215        -0.044202         0.753916
 O        -0.450011         1.078255         0.218596
 H        -3.152339        -2.512555         1.116890
 H        -4.156386        -1.189756         1.146584
 H        -3.381235        -1.650052        -0.409647
 H        -1.871256        -0.298948         1.919195
 H        -2.519704         1.058862        -0.461078
 H        -2.044714        -1.266084        -1.723180
 H        -0.598234        -0.263471        -1.802124
 H        -0.349346        -3.116376        -0.611212
 H         1.172425        -2.417549        -0.094003
 H         0.152663        -3.007219         1.098784
