19
Iteration:   370
 C        -3.022561        -1.577917         1.273906
 C        -1.837313        -0.678836         1.062924
 C        -1.782310         0.437492        -0.053172
 C        -1.437332        -0.556618        -1.121286
 C        -0.649653        -1.227945         0.075424
 C        -0.076849        -2.622358         0.167176
 C         0.382541         0.004405         0.137748
 O         1.615371        -0.004728         0.239626
 O        -0.389599         1.117869         0.098320
 H        -3.858575        -1.038997         1.774971
 H        -3.375602        -2.152369         0.412908
 H        -2.595758        -2.253325         2.056495
 H        -1.469902        -0.281559         2.029786
 H        -2.616583         1.201865        -0.109380
 H        -2.200302        -1.242620        -1.592911
 H        -0.831813        -0.077444        -1.931411
 H        -0.872444        -3.378137        -0.241618
 H         0.823172        -2.783211        -0.490623
 H         0.171195        -2.804804         1.168400
