19
Iteration:  3208charge 0 multiplicity 1
 C        -3.205580        -1.686207        -0.054086
 C        -2.063719        -0.855676         0.500788
 C        -1.706741         0.471362        -0.263767
 C        -0.700436        -0.482418        -1.235614
 C        -0.588585        -1.215142         0.149154
 C         0.115207        -2.480103         0.423976
 C         0.254469        -0.038190         0.730195
 O         1.349222         0.160523         1.134570
 O        -0.640079         1.018628         0.471072
 H        -4.116154        -1.836021         0.600508
 H        -3.575960        -1.192820        -0.917802
 H        -2.760325        -2.499840        -0.632144
 H        -2.257688        -0.756260         1.561235
 H        -2.480631         1.132783        -0.566184
 H        -1.162983        -1.154942        -2.001800
 H         0.269350        -0.129994        -1.413708
 H        -0.074935        -3.467479        -0.167488
 H         1.305274        -2.361036         0.347955
 H        -0.064724        -2.823043         1.539904
