19
Iteration:  1860
 C        -3.127842        -1.621189         0.021526
 C        -2.060365        -0.644693         0.588580
 C        -1.639939         0.358531        -0.546992
 C        -0.797000        -0.791996        -1.177359
 C        -0.553618        -1.191771         0.239608
 C        -0.003301        -2.641646         0.425472
 C         0.273063         0.059543         0.753733
 O         1.190144         0.193334         1.522642
 O        -0.419025         1.171544         0.066842
 H        -2.777096        -2.309082        -0.743660
 H        -3.424202        -2.153542         0.868329
 H        -3.968309        -1.077735        -0.370092
 H        -2.204789        -0.449297         1.665379
 H        -2.184146         1.077277        -1.094952
 H        -1.550005        -1.374362        -1.804194
 H        -0.000163        -0.365956        -1.689093
 H         1.077183        -2.725228         0.642735
 H        -0.628603        -3.382495         1.105453
 H        -0.080164        -3.049843        -0.615477
