19
Iteration:  3441
 C        -3.171208        -1.739095         0.019900
 C        -2.064471        -0.813513         0.612119
 C        -1.641986         0.392362        -0.287032
 C        -0.737108        -0.404507        -1.226770
 C        -0.485013        -1.212624         0.223522
 C        -0.012775        -2.682470         0.248688
 C         0.280442         0.021382         0.713973
 O         1.441294         0.248177         1.039585
 O        -0.724222         1.051441         0.541442
 H        -2.795294        -2.221148        -0.838353
 H        -3.307290        -2.488892         0.816810
 H        -4.131897        -1.327103        -0.116126
 H        -2.168690        -0.518808         1.615951
 H        -2.398650         1.145277        -0.565261
 H        -1.294351        -0.982859        -1.836448
 H         0.096968         0.196519        -1.707317
 H         1.119638        -2.742402         0.295145
 H        -0.539237        -3.171238         1.175793
 H        -0.379718        -3.077883        -0.739483
