19
Iteration:  1610
 C        -3.105595        -1.623905         0.189172
 C        -1.923327        -0.799686         0.674634
 C        -1.675963         0.384326        -0.367628
 C        -0.914395        -0.646182        -1.336817
 C        -0.444347        -1.171390         0.079345
 C        -0.119580        -2.579951         0.400870
 C         0.305694         0.021491         0.675816
 O         1.342911         0.167612         1.277451
 O        -0.542321         1.106079         0.232681
 H        -3.370044        -1.832687        -0.911935
 H        -3.029401        -2.524100         0.803829
 H        -3.932874        -0.978307         0.558344
 H        -2.056658        -0.392391         1.680463
 H        -2.402654         1.132302        -0.523060
 H        -1.440206        -1.429113        -1.923074
 H        -0.220974        -0.062895        -1.956854
 H         0.468996        -3.019381        -0.362881
 H         0.351304        -2.698024         1.372580
 H        -0.950810        -3.248469         0.357615
