19
Iteration:   496
 C        -2.955697        -1.530969         1.340643
 C        -1.863870        -0.636913         0.914114
 C        -1.877670         0.442694        -0.217055
 C        -1.410087        -0.593976        -1.315797
 C        -0.572830        -1.191490         0.057687
 C        -0.080671        -2.637536         0.186310
 C         0.362897        -0.053518         0.280007
 O         1.584675         0.005050         0.478552
 O        -0.424811         1.068693         0.101902
 H        -2.529048        -2.511929         1.463558
 H        -3.347998        -1.177405         2.355854
 H        -3.776452        -1.572446         0.613376
 H        -1.366127        -0.191955         1.800399
 H        -2.526611         1.296862        -0.295409
 H        -2.060511        -1.358418        -1.796195
 H        -0.771763         0.056749        -2.032730
 H         0.968856        -2.458993         0.310927
 H        -0.437365        -3.182450         1.080645
 H        -0.237879        -3.324363        -0.736378
