19
Iteration:   459
 C        -2.989368        -1.442815         1.120865
 C        -1.705486        -0.676367         1.017186
 C        -1.792074         0.441333        -0.066453
 C        -1.508837        -0.733512        -1.089985
 C        -0.674750        -1.212289         0.124777
 C        -0.019293        -2.619323         0.069974
 C         0.331778        -0.028556         0.217817
 O         1.543095         0.075151         0.423595
 O        -0.375423         1.102534         0.053561
 H        -2.963901        -2.186332         1.981639
 H        -3.719673        -0.720273         1.414864
 H        -3.388364        -1.961196         0.235003
 H        -1.375466        -0.518032         2.064577
 H        -2.496994         1.303271        -0.114896
 H        -2.246367        -1.567313        -1.226386
 H        -0.916165        -0.605274        -1.959016
 H         0.570884        -2.835507         0.996655
 H        -0.775710        -3.410065         0.057714
 H         0.627516        -2.741561        -0.813241
