19
Iteration:  1518charge 0 multiplicity 1
 C        -3.175477        -1.517291         0.214965
 C        -1.959984        -0.745213         0.702129
 C        -1.663970         0.366285        -0.295067
 C        -0.995240        -0.658284        -1.261472
 C        -0.570758        -1.251445         0.103665
 C         0.097826        -2.565973         0.350033
 C         0.268186        -0.011196         0.627955
 O         1.337316         0.161998         1.144313
 O        -0.470587         1.075987         0.267669
 H        -3.061658        -2.528611        -0.150509
 H        -3.878093        -1.611551         1.095948
 H        -3.637810        -1.013036        -0.654943
 H        -2.060435        -0.548359         1.777134
 H        -2.544832         1.004979        -0.627644
 H        -1.759276        -1.291809        -1.702025
 H        -0.286052        -0.384649        -2.028092
 H         0.288065        -2.576177         1.451041
 H        -0.388172        -3.453163        -0.011093
 H         1.147747        -2.467371        -0.007970
