19
Iteration:  1521charge 0 multiplicity 1
 C        -3.198763        -1.515019         0.222212
 C        -1.961033        -0.759158         0.701598
 C        -1.655500         0.398729        -0.307542
 C        -0.982811        -0.667545        -1.241259
 C        -0.558327        -1.252531         0.107791
 C         0.110153        -2.551173         0.365157
 C         0.255534         0.017050         0.623470
 O         1.342577         0.121148         1.135705
 O        -0.480672         1.093076         0.266133
 H        -3.004236        -2.602123        -0.125513
 H        -3.843612        -1.730198         1.040416
 H        -3.692532        -1.100038        -0.689354
 H        -2.122936        -0.565081         1.748478
 H        -2.554719         0.987923        -0.582071
 H        -1.736141        -1.242002        -1.700233
 H        -0.216926        -0.443788        -2.053395
 H         0.337356        -2.580294         1.416841
 H        -0.475652        -3.352173         0.030347
 H         1.102126        -2.501940        -0.130828
