19
Iteration:  4323
 C        -3.087165        -1.836544         0.317691
 C        -1.974154        -0.891503         0.606492
 C        -1.700876         0.467051        -0.324330
 C        -0.995492        -0.326857        -1.296721
 C        -0.486811        -1.160775        -0.012926
 C         0.213037        -2.505685        -0.088132
 C         0.284822        -0.045132         0.672318
 O         1.199406         0.028068         1.474711
 O        -0.603936         1.134360         0.433038
 H        -2.829936        -2.877975         0.210821
 H        -3.790163        -1.707860         1.157781
 H        -3.475229        -1.549546        -0.601050
 H        -1.847415        -0.679229         1.681092
 H        -2.425966         1.252535        -0.552378
 H        -1.699917        -0.993548        -1.860939
 H        -0.264306         0.343762        -1.882482
 H         0.594496        -2.954390        -1.034072
 H         1.140814        -2.237733         0.421096
 H        -0.289249        -3.263461         0.498655
