19
Iteration:  2530charge 0 multiplicity 1
 C        -3.064678        -1.761109        -0.110178
 C        -2.056187        -0.694524         0.471871
 C        -1.585049         0.359049        -0.547769
 C        -0.727718        -0.691278        -1.256899
 C        -0.538850        -1.149012         0.320819
 C        -0.203734        -2.595993         0.565783
 C         0.325379         0.050989         0.773170
 O         1.332389         0.294120         1.431910
 O        -0.571162         1.078486         0.233930
 H        -2.832264        -2.073076        -1.111881
 H        -3.375142        -2.623004         0.532586
 H        -3.999878        -1.249575        -0.331218
 H        -2.328710        -0.267272         1.505191
 H        -2.294798         1.099619        -1.118967
 H        -1.090638        -1.483170        -1.970388
 H         0.160841        -0.258457        -1.719157
 H        -1.145324        -3.297952         0.369641
 H         0.651565        -2.844608        -0.040791
 H        -0.022013        -2.832299         1.683274
