19
Iteration:  2455
 C        -3.187643        -1.591865        -0.094134
 C        -2.135281        -0.724025         0.466478
 C        -1.584669         0.516556        -0.555065
 C        -0.715338        -0.737435        -1.315226
 C        -0.612081        -1.253875         0.210572
 C         0.168511        -2.474810         0.731730
 C         0.184943        -0.018824         0.746359
 O         1.188076         0.069589         1.411467
 O        -0.503824         1.095757         0.210586
 H        -3.133518        -1.878377        -1.164790
 H        -3.118653        -2.629671         0.423162
 H        -4.198900        -1.128111         0.064183
 H        -2.183900        -0.525275         1.565465
 H        -2.180848         1.399502        -0.818910
 H        -1.223212        -1.499819        -1.898635
 H         0.206078        -0.356011        -1.700654
 H         0.205228        -3.201527        -0.103311
 H         1.149763        -2.167158         0.778551
 H        -0.210463        -2.908044         1.659105
