19
Iteration:  4540charge 0 multiplicity 1
 C        -3.055647        -1.905516         0.366665
 C        -1.970543        -0.853152         0.568897
 C        -1.773661         0.438878        -0.298934
 C        -0.914623        -0.311815        -1.375954
 C        -0.558174        -1.112860        -0.112880
 C         0.251427        -2.392579        -0.035770
 C         0.186755         0.052400         0.655504
 O         1.120641        -0.134856         1.513673
 O        -0.470504         1.124997         0.457089
 H        -2.488300        -2.833996         0.586669
 H        -4.018267        -1.630244         0.915162
 H        -3.485694        -1.980724        -0.617916
 H        -2.066064        -0.429439         1.563075
 H        -2.403127         1.341866        -0.326631
 H        -1.651429        -0.944974        -1.926117
 H        -0.056309         0.165784        -1.868333
 H        -0.153285        -3.136759        -0.782962
 H         1.326595        -2.285031        -0.205529
 H         0.287833        -2.758746         0.974276
