19
Iteration:   606
 C        -3.126323        -1.438290         1.140936
 C        -1.803353        -0.701970         0.906314
 C        -1.771693         0.399732        -0.174351
 C        -1.317067        -0.668209        -1.188277
 C        -0.566665        -1.202899         0.065911
 C         0.004051        -2.516784         0.123002
 C         0.363808        -0.072483         0.316188
 O         1.566819         0.051052         0.457638
 O        -0.483274         1.031146         0.217287
 H        -3.117062        -2.362770         1.699063
 H        -3.921298        -0.773044         1.585253
 H        -3.576368        -1.664447         0.138820
 H        -1.352586        -0.463875         1.892255
 H        -2.609619         1.135607        -0.204646
 H        -2.181271        -1.250799        -1.506070
 H        -0.733200        -0.531673        -2.169122
 H        -0.772855        -3.260884         0.086728
 H         0.746615        -2.695301        -0.680916
 H         0.491149        -2.700959         1.092616
