19
Iteration:  2462charge 0 multiplicity 1
 C        -3.261708        -1.617085        -0.096936
 C        -2.099473        -0.701678         0.430973
 C        -1.590312         0.449351        -0.500877
 C        -0.660293        -0.710985        -1.301988
 C        -0.586470        -1.191288         0.196775
 C         0.138294        -2.375839         0.715768
 C         0.161715        -0.089570         0.772764
 O         1.247398         0.076548         1.370741
 O        -0.534415         1.043642         0.242190
 H        -3.246609        -1.821207        -1.160830
 H        -3.168529        -2.546427         0.406888
 H        -4.207450        -1.219785         0.107856
 H        -2.422212        -0.381427         1.453319
 H        -2.066288         1.296741        -0.982752
 H        -1.109428        -1.534458        -1.955123
 H         0.242333        -0.333364        -1.774777
 H         0.079823        -3.288505         0.031473
 H         1.248135        -2.097163         0.859887
 H        -0.295423        -2.814366         1.655996
