19
Iteration:  4521
 C        -3.060307        -1.840982         0.360797
 C        -1.935234        -0.831779         0.550814
 C        -1.686350         0.509756        -0.375256
 C        -0.927377        -0.343729        -1.337933
 C        -0.443782        -1.118962        -0.063581
 C         0.246621        -2.472889        -0.115366
 C         0.145612        -0.050183         0.763979
 O         1.162348        -0.080249         1.527245
 O        -0.630629         1.133646         0.466476
 H        -2.823930        -2.748021         0.867384
 H        -3.783630        -1.327401         0.983437
 H        -3.567614        -1.945007        -0.595647
 H        -1.789495        -0.750307         1.607126
 H        -2.571168         1.102900        -0.646469
 H        -1.555404        -0.973231        -2.055483
 H        -0.242344         0.306855        -1.955193
 H        -0.462589        -3.232892        -0.590682
 H         1.211598        -2.392739        -0.723908
 H         0.687001        -2.772393         0.866892
