19
Iteration:   754charge 0 multiplicity 1
 C        -3.146024        -1.425971         1.147924
 C        -1.916535        -0.574513         0.902827
 C        -1.771374         0.447803        -0.204166
 C        -1.264028        -0.667679        -1.272014
 C        -0.566573        -1.234352         0.090113
 C         0.153738        -2.654562         0.044894
 C         0.329070        -0.058064         0.353759
 O         1.509235        -0.039666         0.649884
 O        -0.502060         1.088556         0.146426
 H        -2.934175        -2.365157         1.688969
 H        -3.842701        -0.937380         1.828032
 H        -3.704581        -1.790960         0.288766
 H        -1.713703        -0.167430         1.900644
 H        -2.519222         1.220595        -0.428400
 H        -2.100892        -1.240250        -1.623940
 H        -0.660143        -0.202658        -2.029933
 H         1.179890        -2.309325        -0.101873
 H         0.243686        -3.373012         0.822944
 H        -0.185620        -3.273861        -0.832017
