19
Iteration:   920charge 0 multiplicity 1
 C        -3.199515        -1.522061         0.761186
 C        -1.730615        -0.747506         0.865844
 C        -1.754356         0.479421        -0.100339
 C        -1.410234        -0.698764        -1.151173
 C        -0.487167        -1.190546        -0.035230
 C         0.081882        -2.564573         0.185930
 C         0.370506         0.008119         0.336728
 O         1.510312        -0.031334         0.724873
 O        -0.481669         1.161349         0.253506
 H        -3.496600        -1.787461         1.778272
 H        -3.940285        -0.773186         0.329251
 H        -3.209340        -2.466302         0.160567
 H        -1.307220        -0.592424         1.883853
 H        -2.648076         1.115048        -0.279627
 H        -2.287389        -1.302044        -1.289001
 H        -1.091296        -0.378728        -2.148515
 H         0.446512        -2.754136         1.211898
 H        -0.620975        -3.316291        -0.056456
 H         0.954075        -2.654490        -0.579200
