19
Iteration:  1850charge 0 multiplicity 1
 C        -3.178024        -1.623549         0.006829
 C        -2.056340        -0.677758         0.581475
 C        -1.581940         0.336053        -0.464372
 C        -0.825801        -0.706930        -1.189192
 C        -0.521773        -1.166298         0.280186
 C         0.018593        -2.517926         0.431589
 C         0.258301         0.076714         0.717649
 O         1.209750         0.128654         1.485532
 O        -0.446237         1.080112         0.048543
 H        -2.834787        -2.397274        -0.692619
 H        -3.787956        -2.115841         0.723493
 H        -3.809153        -0.984653        -0.534200
 H        -2.377428        -0.293080         1.577915
 H        -2.321842         0.975033        -0.895894
 H        -1.265912        -1.594405        -1.738265
 H         0.031190        -0.461516        -1.762235
 H         1.002096        -2.528299         0.946460
 H        -0.666063        -3.253013         1.078171
 H         0.147938        -2.985282        -0.569021
