19
Iteration:  1117
 C        -3.113024        -1.649768         0.705133
 C        -1.852018        -0.691477         0.733289
 C        -1.762068         0.428776        -0.184145
 C        -1.167154        -0.482099        -1.216953
 C        -0.515294        -1.195092         0.072165
 C        -0.098747        -2.660328         0.243166
 C         0.383986        -0.000348         0.449125
 O         1.545117         0.039364         0.791205
 O        -0.546034         1.108321         0.241142
 H        -2.854634        -2.694470         0.443857
 H        -3.511053        -1.685269         1.718092
 H        -3.816015        -1.236334        -0.047453
 H        -1.603109        -0.337866         1.770904
 H        -2.573518         1.110264        -0.342599
 H        -1.830048        -1.181033        -1.811797
 H        -0.502581         0.050582        -1.873210
 H        -0.506744        -2.842792         1.243098
 H        -0.592858        -3.293181        -0.419353
 H         0.997459        -2.908512         0.201726
