19
Iteration:  4599
 C        -3.146807        -1.783167         0.099595
 C        -1.935236        -0.951024         0.591644
 C        -1.687345         0.410346        -0.208101
 C        -0.915626        -0.336530        -1.199979
 C        -0.481033        -1.168492         0.010683
 C         0.085711        -2.527790         0.055472
 C         0.286672         0.025542         0.722532
 O         1.348285         0.178742         1.270710
 O        -0.680938         1.042058         0.550133
 H        -3.096178        -2.691539         0.659119
 H        -4.095632        -1.429229         0.244583
 H        -2.835922        -2.084828        -0.907964
 H        -1.839691        -0.708521         1.604209
 H        -2.406744         1.209163        -0.423401
 H        -1.410576        -0.988972        -1.948988
 H        -0.270227         0.249934        -1.886954
 H        -0.265016        -2.843752        -0.950832
 H         1.220230        -2.642384        -0.014052
 H        -0.467669        -3.286499         0.689395
