19
Iteration:  2571
 C        -3.095658        -1.679269         0.118399
 C        -2.016176        -0.667658         0.532730
 C        -1.519599         0.458371        -0.637022
 C        -0.708209        -0.669483        -1.397195
 C        -0.579461        -1.202466         0.157986
 C         0.065251        -2.488393         0.583690
 C         0.168301        -0.035388         0.682347
 O         1.055785         0.080324         1.555699
 O        -0.514788         1.075362         0.203734
 H        -2.663983        -2.382988        -0.557445
 H        -3.474792        -2.293336         0.919538
 H        -3.828078        -1.101584        -0.367500
 H        -2.177407        -0.127979         1.453852
 H        -2.149113         1.217390        -1.057180
 H        -1.402801        -1.327724        -2.041858
 H         0.208265        -0.341404        -1.822216
 H        -0.553085        -3.398243         0.375847
 H         0.886574        -2.585089        -0.125657
 H         0.404301        -2.400105         1.630867
