19
Iteration:  1862
 C        -3.118275        -1.606698         0.032528
 C        -2.051251        -0.655344         0.573689
 C        -1.640365         0.378048        -0.555864
 C        -0.798483        -0.807573        -1.192166
 C        -0.556751        -1.201318         0.250667
 C        -0.003492        -2.673516         0.414783
 C         0.263595         0.054890         0.755931
 O         1.180535         0.211446         1.525924
 O        -0.412920         1.183862         0.081909
 H        -2.742197        -2.289278        -0.754447
 H        -3.367828        -2.207947         0.910837
 H        -4.000633        -1.169205        -0.299959
 H        -2.154852        -0.394435         1.658828
 H        -2.187155         1.130357        -1.162819
 H        -1.572875        -1.346553        -1.808379
 H         0.031188        -0.335848        -1.731803
 H         1.077609        -2.704494         0.612586
 H        -0.662276        -3.398715         1.137543
 H        -0.153058        -3.120907        -0.591291
