19
Iteration:  3682
 C        -3.180493        -1.749420         0.013630
 C        -1.995320        -0.858133         0.625065
 C        -1.601235         0.413168        -0.189170
 C        -0.851266        -0.474458        -1.114152
 C        -0.518386        -1.223775         0.155305
 C         0.094485        -2.560020         0.130539
 C         0.231958         0.009885         0.715767
 O         1.387047         0.235295         0.995154
 O        -0.697172         1.052175         0.633916
 H        -3.877340        -0.971279        -0.452440
 H        -2.804444        -2.421366        -0.871472
 H        -3.678162        -2.380669         0.765126
 H        -2.097894        -0.758737         1.706697
 H        -2.162291         1.163138        -0.763989
 H        -1.530887        -0.923789        -1.879495
 H        -0.081434        -0.023970        -1.823207
 H         1.131028        -2.409589        -0.108132
 H        -0.024406        -3.126668         1.100710
 H        -0.382321        -3.091681        -0.723999
