19
Iteration:  3997
 C        -3.018647        -1.774549         0.295447
 C        -1.926613        -0.810142         0.672386
 C        -1.771330         0.462962        -0.239066
 C        -1.056066        -0.384544        -1.351167
 C        -0.411564        -1.103232        -0.050622
 C         0.181143        -2.435301        -0.070911
 C         0.253926        -0.087679         0.699050
 O         1.261947         0.029534         1.380041
 O        -0.637447         1.018864         0.484083
 H        -3.356747        -2.257383         1.211776
 H        -3.888962        -1.206759        -0.076878
 H        -2.753357        -2.531665        -0.420516
 H        -2.078776        -0.601632         1.759347
 H        -2.463728         1.245835        -0.496019
 H        -1.676331        -1.108664        -1.859478
 H        -0.246947         0.055487        -1.870620
 H         1.209303        -2.462939        -0.636168
 H         0.367360        -2.939724         0.936364
 H        -0.429536        -3.039472        -0.778749
