19
Iteration:  2224charge 0 multiplicity 1
 C        -3.078236        -1.758919        -0.017321
 C        -2.025482        -0.661621         0.454544
 C        -1.612726         0.383043        -0.582676
 C        -0.676568        -0.658030        -1.272961
 C        -0.460974        -1.149635         0.185642
 C        -0.191876        -2.570593         0.632481
 C         0.215646         0.035770         0.770776
 O         1.251142         0.134071         1.430314
 O        -0.534045         1.168834         0.201160
 H        -2.684840        -2.346305        -0.874077
 H        -3.178812        -2.584018         0.790545
 H        -4.045255        -1.256027        -0.217423
 H        -2.268134        -0.317737         1.478425
 H        -2.383510         0.996206        -0.959774
 H        -0.875708        -1.521571        -1.931564
 H         0.096436        -0.020367        -1.663775
 H        -0.432886        -3.393818        -0.076220
 H         0.827543        -2.745771         0.875463
 H        -0.876414        -2.748151         1.474055
