19
Iteration:   881
 C        -3.173739        -1.554544         0.847019
 C        -1.839986        -0.711893         0.893914
 C        -1.710947         0.437112        -0.118395
 C        -1.235592        -0.542145        -1.139778
 C        -0.682167        -1.227497         0.089587
 C         0.048950        -2.558181         0.199140
 C         0.332875        -0.101571         0.432723
 O         1.514067         0.104073         0.533701
 O        -0.439204         1.022915         0.185816
 H        -3.303985        -2.155417         1.799410
 H        -3.982665        -0.880747         0.711837
 H        -3.328192        -2.316939         0.059229
 H        -1.741884        -0.383282         1.929377
 H        -2.415085         1.217572        -0.254098
 H        -1.986783        -1.223161        -1.646040
 H        -0.421291        -0.270525        -1.815808
 H        -0.317761        -3.444501         0.740517
 H         0.080901        -2.698919        -0.942484
 H         1.044763        -2.434278         0.471578
