19
Iteration:    31charge 0 multiplicity 1
 C        -2.747652        -1.586470         1.677675
 C        -1.753149        -0.598496         1.071149
 C        -1.734832         0.475718        -0.022366
 C        -1.588201        -0.518650        -1.041854
 C        -0.703644        -1.197871        -0.058122
 C        -0.214190        -2.595619        -0.113333
 C         0.345162        -0.046828         0.036804
 O         1.583744        -0.095688         0.018844
 O        -0.438098         1.071458         0.268721
 H        -2.780620        -1.434400         2.729076
 H        -3.727601        -1.615991         1.141941
 H        -2.173656        -2.464067         1.464858
 H        -1.157450        -0.154913         1.932139
 H        -2.473720         1.253665        -0.079659
 H        -2.497709        -1.065161        -1.214284
 H        -1.395731        -0.288945        -2.089242
 H         0.955738        -2.343022         0.144124
 H        -0.430676        -3.225656         0.762004
 H        -0.194725        -3.121410        -1.000795
