19
Iteration:  4981charge 0 multiplicity 1
 C        -3.072608        -1.802778         0.403398
 C        -1.964553        -0.893537         0.473135
 C        -1.660368         0.382729        -0.272778
 C        -0.958058        -0.359101        -1.398031
 C        -0.507049        -1.148658        -0.039498
 C         0.245127        -2.468743        -0.193745
 C         0.274282         0.072816         0.704470
 O         1.088027         0.007844         1.606302
 O        -0.548655         1.107181         0.469568
 H        -3.098104        -2.693242         1.076392
 H        -4.005771        -1.199940         0.613008
 H        -3.226530        -2.288494        -0.620774
 H        -1.986315        -0.481036         1.553153
 H        -2.355488         1.228271        -0.316276
 H        -1.529437        -1.053920        -1.962758
 H        -0.096966         0.101640        -1.804485
 H        -0.288685        -3.065249        -0.912062
 H         1.218071        -2.342653        -0.579991
 H         0.140563        -3.099549         0.676389
