19
Iteration:  3077charge 0 multiplicity 1
 C        -3.237680        -1.581864         0.349384
 C        -1.989365        -0.726461         0.411316
 C        -1.618001         0.361646        -0.576295
 C        -0.715595        -0.598276        -1.406957
 C        -0.465831        -1.205431        -0.005584
 C         0.288326        -2.573674         0.262960
 C         0.137266         0.016009         0.807628
 O         1.039530         0.054209         1.587646
 O        -0.550334         1.119876         0.306253
 H        -2.998482        -2.699531         0.201782
 H        -3.734253        -1.611535         1.303907
 H        -3.997414        -1.255780        -0.400161
 H        -2.080638        -0.369028         1.393945
 H        -2.409018         1.002035        -0.734564
 H        -1.309546        -1.173008        -2.131459
 H         0.153597        -0.093881        -1.812620
 H        -0.410276        -3.248017        -0.155858
 H         1.212971        -2.684223        -0.335561
 H         0.636250        -2.616961         1.309559
