19
Iteration:  2955
 C        -3.113457        -1.723147        -0.080354
 C        -2.115673        -0.678222         0.408011
 C        -1.591012         0.407542        -0.451256
 C        -0.729839        -0.608684        -1.227680
 C        -0.530762        -1.198537         0.145809
 C         0.127211        -2.520723         0.645265
 C         0.137010         0.050603         0.720389
 O         1.248471         0.082818         1.183538
 O        -0.610999         1.111962         0.491600
 H        -4.020636        -1.260685        -0.604562
 H        -2.711994        -2.479187        -0.882804
 H        -3.460641        -2.249839         0.825054
 H        -2.356250        -0.412979         1.399409
 H        -2.204615         1.138656        -1.053988
 H        -1.210977        -1.316714        -1.792700
 H         0.244634        -0.347162        -1.756206
 H        -0.338794        -3.434138         0.132414
 H         1.144429        -2.535836         0.291680
 H         0.193983        -2.620052         1.767008
