19
Iteration:  3821
 C        -3.168337        -1.740892         0.349349
 C        -1.971455        -0.807450         0.715077
 C        -1.706858         0.316897        -0.220301
 C        -0.926048        -0.410534        -1.290156
 C        -0.338280        -1.138382        -0.082020
 C         0.202423        -2.503858        -0.313808
 C         0.261885        -0.005168         0.757887
 O         1.109516         0.139895         1.566903
 O        -0.522215         1.061785         0.366188
 H        -2.927558        -2.616599        -0.203787
 H        -3.460478        -2.181164         1.310507
 H        -4.120154        -1.456180        -0.056150
 H        -2.034848        -0.582751         1.819402
 H        -2.492239         1.064489        -0.486458
 H        -1.442550        -0.953652        -2.042340
 H        -0.216241         0.171464        -1.993863
 H         1.142710        -2.680443        -1.024009
 H         0.234375        -3.105749         0.612681
 H        -0.631439        -3.069764        -0.795875
