19
Iteration:  3053
 C        -3.270089        -1.686366         0.275729
 C        -2.019080        -0.785484         0.479261
 C        -1.545308         0.407992        -0.500569
 C        -0.650723        -0.607109        -1.265206
 C        -0.487032        -1.209930         0.147616
 C         0.111854        -2.563203         0.221848
 C         0.219575         0.014132         0.719110
 O         1.118562         0.175464         1.524472
 O        -0.586285         1.095435         0.230242
 H        -3.093228        -2.552627        -0.324936
 H        -3.770853        -2.094687         1.152640
 H        -3.938193        -1.061046        -0.223037
 H        -2.137653        -0.522279         1.506476
 H        -2.173840         1.232676        -0.929243
 H        -1.143739        -1.295676        -1.844031
 H         0.121791        -0.034439        -1.783500
 H        -0.395189        -3.055840        -0.665555
 H         1.141962        -2.440507        -0.091153
 H         0.244014        -3.009486         1.246334
