19
Iteration:  3912charge 0 multiplicity 1
 C        -3.040841        -1.818541        -0.076942
 C        -1.980553        -0.912078         0.592327
 C        -1.734267         0.519368        -0.101672
 C        -0.959099        -0.284225        -1.128420
 C        -0.524686        -1.145319         0.040701
 C         0.178201        -2.513950         0.225977
 C         0.188850        -0.016707         0.683203
 O         1.361920         0.029173         0.921372
 O        -0.633015         1.071768         0.712979
 H        -2.773258        -2.897877        -0.011099
 H        -3.981184        -1.697913         0.440573
 H        -3.303266        -1.649907        -1.113728
 H        -2.057570        -0.922590         1.682644
 H        -2.424314         1.285605        -0.397866
 H        -1.748377        -0.967009        -1.617008
 H        -0.279735         0.113898        -1.894086
 H         1.170541        -2.437941        -0.171460
 H         0.277615        -2.700566         1.309947
 H        -0.386850        -3.342322        -0.148771
