19
Iteration:  1975charge 0 multiplicity 1
 C        -3.254959        -1.577155        -0.128896
 C        -1.984467        -0.743163         0.517196
 C        -1.609257         0.398189        -0.543469
 C        -0.778303        -0.802776        -1.164433
 C        -0.445866        -1.201805         0.237666
 C         0.080271        -2.645790         0.498776
 C         0.240482         0.113903         0.791368
 O         1.179395         0.214714         1.546807
 O        -0.502420         1.116509         0.117152
 H        -3.212199        -1.671149        -1.205168
 H        -3.509078        -2.547933         0.354535
 H        -4.088348        -0.815418         0.009566
 H        -2.204848        -0.338165         1.534844
 H        -2.286911         1.163022        -0.938378
 H        -1.463353        -1.583324        -1.455841
 H        -0.066914        -0.535243        -2.016068
 H         0.200096        -3.271276        -0.445413
 H         1.082076        -2.556392         0.916135
 H        -0.566088        -3.294443         1.176281
