19
Iteration:  3702charge 0 multiplicity 1
 C        -3.074443        -1.670769        -0.045221
 C        -2.006649        -0.842919         0.590893
 C        -1.787389         0.415278        -0.169403
 C        -0.887711        -0.557978        -1.226601
 C        -0.537853        -1.218588         0.197718
 C         0.089976        -2.602121         0.075685
 C         0.266580         0.056671         0.760415
 O         1.435928         0.253770         1.053206
 O        -0.638338         1.060039         0.662197
 H        -3.783903        -1.064781        -0.653300
 H        -2.587060        -2.638571        -0.472879
 H        -3.631514        -2.128359         0.793286
 H        -2.260799        -0.497872         1.600434
 H        -2.605591         1.179060        -0.287520
 H        -1.450935        -1.325563        -1.792303
 H        -0.086844        -0.131648        -2.046338
 H         1.027506        -2.667934        -0.371799
 H         0.119417        -3.072127         1.035427
 H        -0.561261        -3.280949        -0.396510
