19
Iteration:  2141
 C        -3.294157        -1.470963         0.218254
 C        -2.067468        -0.690073         0.359053
 C        -1.462780         0.311383        -0.717787
 C        -0.453544        -0.711717        -1.210818
 C        -0.533348        -1.285084         0.175329
 C         0.141359        -2.601461         0.396336
 C         0.080973         0.030915         0.813317
 O         1.000864         0.162053         1.541749
 O        -0.555891         1.095810         0.226992
 H        -3.364023        -2.030909        -0.751446
 H        -3.284695        -2.134016         1.043236
 H        -4.230444        -0.875477         0.265581
 H        -2.274809        -0.187870         1.330600
 H        -2.126760         0.988437        -1.277713
 H        -0.884999        -1.391069        -2.059401
 H         0.562473        -0.432721        -1.501049
 H        -0.467843        -3.549082         0.179190
 H         1.013320        -2.536280        -0.271414
 H         0.680963        -2.632535         1.389331
