19
Iteration:  1373
 C        -3.186127        -1.536693         0.390733
 C        -1.956906        -0.707503         0.747403
 C        -1.651798         0.375213        -0.278095
 C        -1.152956        -0.680833        -1.255553
 C        -0.507916        -1.224434         0.180257
 C         0.059557        -2.664013         0.229679
 C         0.315094         0.011570         0.561348
 O         1.381883         0.183126         1.080078
 O        -0.454090         1.102900         0.201816
 H        -3.905135        -1.372933         1.200893
 H        -3.630634        -1.342794        -0.632199
 H        -3.099735        -2.626626         0.505289
 H        -1.786125        -0.421521         1.811319
 H        -2.292142         1.208764        -0.482058
 H        -1.929201        -1.249656        -1.784159
 H        -0.332759        -0.324474        -1.813679
 H         1.136174        -2.587620         0.196226
 H        -0.085600        -3.141319         1.226137
 H        -0.251903        -3.254884        -0.612546
