19
Iteration:  1762
 C        -3.148525        -1.691615         0.062041
 C        -2.071193        -0.657836         0.544424
 C        -1.594398         0.461604        -0.412257
 C        -0.808298        -0.642909        -1.229802
 C        -0.533519        -1.183853         0.301496
 C        -0.070644        -2.722378         0.530782
 C         0.250716         0.057461         0.648307
 O         1.298406         0.168618         1.231771
 O        -0.486882         1.140940         0.223472
 H        -3.362529        -2.386533         0.882424
 H        -4.076651        -1.265055        -0.172066
 H        -2.665386        -2.174706        -0.728080
 H        -2.342643        -0.170553         1.500135
 H        -2.146025         1.119796        -0.991140
 H        -1.236495        -1.509580        -1.810168
 H         0.079521        -0.341032        -1.717487
 H        -0.616293        -3.488788         1.082890
 H        -0.189781        -3.152372        -0.519654
 H         0.971339        -2.679832         0.895148
