19
Iteration:  1358charge 0 multiplicity 1
 C        -3.264610        -1.547675         0.462552
 C        -1.955471        -0.765247         0.712198
 C        -1.686854         0.458024        -0.312321
 C        -0.991180        -0.695788        -1.176463
 C        -0.614296        -1.244600         0.159716
 C         0.117808        -2.562511         0.229811
 C         0.305173         0.011704         0.597188
 O         1.432888         0.140303         0.985992
 O        -0.463101         1.093757         0.262798
 H        -4.153614        -1.027342         0.861788
 H        -3.552699        -1.531279        -0.545265
 H        -3.109061        -2.582460         0.780209
 H        -2.074528        -0.464774         1.764782
 H        -2.520110         1.097082        -0.710900
 H        -1.712337        -1.419075        -1.533875
 H        -0.365082        -0.487475        -2.114836
 H         1.188765        -2.457541         0.562500
 H        -0.497093        -3.388635         0.743794
 H         0.051942        -2.987131        -0.822265
