19
Iteration:  2394charge 0 multiplicity 1
 C        -3.149187        -1.674533         0.306459
 C        -2.012273        -0.662329         0.366177
 C        -1.401790         0.378310        -0.657179
 C        -0.579302        -0.645243        -1.344971
 C        -0.445229        -1.242523         0.078650
 C        -0.107909        -2.715977         0.395750
 C         0.165294         0.010986         0.817485
 O         0.972690         0.296875         1.636552
 O        -0.494191         1.133290         0.186496
 H        -3.132212        -2.405180        -0.478166
 H        -3.056239        -2.129615         1.245488
 H        -4.118578        -1.161243         0.267187
 H        -2.180402        -0.318349         1.380857
 H        -2.180888         0.941551        -1.288763
 H        -1.094732        -1.264136        -2.043179
 H         0.202884        -0.191491        -2.087973
 H        -0.709686        -3.314983        -0.275407
 H         1.061926        -2.991127         0.215141
 H        -0.398986        -3.081519         1.399447
