19
Iteration:  4062
 C        -2.956874        -1.759684         0.386786
 C        -1.917282        -0.780792         0.621014
 C        -1.762639         0.425900        -0.297463
 C        -1.005055        -0.434881        -1.333915
 C        -0.490705        -1.156258        -0.124217
 C         0.233781        -2.470735        -0.165666
 C         0.229249        -0.038575         0.656400
 O         1.055353        -0.024826         1.533341
 O        -0.514639         1.130089         0.472244
 H        -2.663556        -2.628563         0.997850
 H        -3.820826        -1.510301         1.099292
 H        -3.396920        -2.053815        -0.564333
 H        -1.826860        -0.496778         1.726040
 H        -2.588008         1.076768        -0.500278
 H        -1.719256        -0.905750        -1.999425
 H        -0.274704         0.086251        -1.930207
 H         0.942170        -2.476476        -1.067792
 H         0.825522        -2.562885         0.773701
 H        -0.414166        -3.294458        -0.482909
