19
Iteration:  4482
 C        -3.051865        -1.767759         0.137578
 C        -1.890781        -0.903598         0.606814
 C        -1.722486         0.434232        -0.223505
 C        -0.974636        -0.380974        -1.257978
 C        -0.427750        -1.144354        -0.005782
 C         0.199168        -2.548165        -0.169753
 C         0.196918        -0.032288         0.791781
 O         1.231292         0.141673         1.463629
 O        -0.634933         1.063865         0.491773
 H        -3.456374        -2.506954         0.869540
 H        -3.843110        -1.022457         0.381884
 H        -3.148267        -2.248136        -0.871074
 H        -2.127298        -0.720512         1.695787
 H        -2.297872         1.300934        -0.490662
 H        -1.554181        -1.019798        -1.871513
 H        -0.275863         0.161244        -1.872861
 H        -0.534348        -3.296548        -0.073523
 H         0.560904        -2.640505        -1.161142
 H         0.879250        -2.841125         0.618904
