19
Iteration:   522
 C        -2.979992        -1.621343         1.321123
 C        -1.839417        -0.651363         1.043775
 C        -1.671101         0.505236        -0.231456
 C        -1.370605        -0.623666        -1.281904
 C        -0.581040        -1.194164        -0.019832
 C        -0.066405        -2.598132         0.161981
 C         0.314278        -0.041364         0.221089
 O         1.456857        -0.022929         0.532867
 O        -0.440727         1.130650         0.052370
 H        -2.657575        -2.683668         1.224315
 H        -3.321275        -1.428095         2.327394
 H        -3.819333        -1.418213         0.639141
 H        -1.323990        -0.307415         1.943112
 H        -2.425726         1.319905        -0.427562
 H        -2.316681        -1.103407        -1.542134
 H        -0.684719        -0.327516        -2.093847
 H         0.958153        -2.760275        -0.355996
 H         0.120628        -2.618172         1.298849
 H        -0.759478        -3.361759         0.045835
