19
Iteration:  1344
 C        -3.298809        -1.554921         0.492564
 C        -2.029151        -0.689664         0.711187
 C        -1.661301         0.357344        -0.338258
 C        -0.985989        -0.631915        -1.210165
 C        -0.500278        -1.183212         0.183126
 C         0.114767        -2.546180         0.219126
 C         0.317058        -0.019197         0.594345
 O         1.470898         0.041089         0.924162
 O        -0.592296         1.103262         0.295913
 H        -4.153931        -0.924737         0.777116
 H        -3.388965        -1.993533        -0.562528
 H        -3.304228        -2.418210         1.184352
 H        -1.946253        -0.326286         1.726484
 H        -2.309367         1.180582        -0.674937
 H        -1.681392        -1.328659        -1.817229
 H        -0.135707        -0.307893        -1.793145
 H         0.949069        -2.507932         1.013090
 H        -0.557302        -3.298169         0.547902
 H         0.686788        -2.833405        -0.712041
