19
Iteration:  3678charge 0 multiplicity 1
 C        -3.185359        -1.735827         0.008392
 C        -2.004673        -0.888962         0.599102
 C        -1.614993         0.385571        -0.181844
 C        -0.835177        -0.425938        -1.135561
 C        -0.540957        -1.252531         0.166456
 C         0.109194        -2.540730         0.140129
 C         0.233201         0.031368         0.712031
 O         1.399491         0.210162         1.001642
 O        -0.689800         1.062540         0.620380
 H        -3.974603        -1.029721        -0.251274
 H        -2.796244        -2.446787        -0.751422
 H        -3.623847        -2.399170         0.770748
 H        -2.156329        -0.591269         1.675695
 H        -2.215986         1.107652        -0.756956
 H        -1.553613        -0.861498        -1.803816
 H        -0.083376         0.117164        -1.839770
 H         1.190450        -2.470435        -0.034934
 H        -0.082330        -3.127248         0.986261
 H        -0.306287        -3.196012        -0.595870
