19
Iteration:  4093
 C        -3.114421        -1.799042         0.279066
 C        -1.925038        -0.873465         0.593269
 C        -1.714374         0.349476        -0.274729
 C        -0.867018        -0.385560        -1.264319
 C        -0.419233        -1.158716        -0.012366
 C         0.098625        -2.512643        -0.140268
 C         0.232144         0.009361         0.740837
 O         1.261431         0.140119         1.363744
 O        -0.610960         1.114587         0.526257
 H        -2.803033        -2.869009         0.465662
 H        -3.916095        -1.494690         1.094669
 H        -3.648959        -1.817668        -0.693654
 H        -2.114973        -0.659506         1.698823
 H        -2.598322         0.914885        -0.513129
 H        -1.665964        -0.940129        -1.742403
 H        -0.159216         0.186314        -1.930651
 H         0.791164        -2.537497        -1.006665
 H         0.647557        -2.894214         0.699155
 H        -0.736836        -3.172929        -0.312795
