19
Iteration:  2912charge 0 multiplicity 1
 C        -3.233849        -1.639293        -0.044466
 C        -2.019352        -0.797896         0.544218
 C        -1.721328         0.341180        -0.510954
 C        -0.697292        -0.724324        -1.177015
 C        -0.414403        -1.213651         0.203805
 C         0.083046        -2.630850         0.402081
 C         0.239328         0.072483         0.757449
 O         1.157562         0.298509         1.472430
 O        -0.486593         1.111988         0.208684
 H        -4.177629        -1.293476         0.512052
 H        -3.382173        -1.406190        -1.189117
 H        -3.073112        -2.723979         0.140261
 H        -2.189359        -0.396476         1.509783
 H        -2.461890         1.111590        -0.896134
 H        -1.162571        -1.238330        -1.935567
 H         0.132308        -0.098968        -1.634376
 H        -0.745414        -3.290335         0.107444
 H         0.908789        -3.034988        -0.034515
 H         0.270848        -2.743675         1.472645
