19
Iteration:   663
 C        -3.074914        -1.732767         0.958481
 C        -1.841014        -0.658219         1.028028
 C        -1.748624         0.446254        -0.068793
 C        -1.416219        -0.597677        -1.186814
 C        -0.639261        -1.129848         0.152383
 C        -0.123358        -2.507839         0.203962
 C         0.367521         0.026457         0.267576
 O         1.587022        -0.019790         0.478480
 O        -0.310048         1.091548         0.061699
 H        -3.206812        -2.229648         1.959378
 H        -3.990664        -1.208004         0.744475
 H        -2.794738        -2.511222         0.231776
 H        -1.493789        -0.666705         2.074451
 H        -2.451900         1.303203        -0.147522
 H        -2.241752        -1.209664        -1.715200
 H        -0.697470         0.040285        -1.758094
 H        -0.485570        -2.886352         1.224560
 H        -0.531046        -3.202283        -0.645272
 H         0.878672        -2.395257         0.136959
