19
Iteration:  1086charge 0 multiplicity 1
 C        -3.255402        -1.550957         0.826629
 C        -1.900939        -0.711787         0.696135
 C        -1.648727         0.450118        -0.232271
 C        -1.093234        -0.557965        -1.227057
 C        -0.632556        -1.249443         0.053111
 C         0.109152        -2.571830         0.190138
 C         0.298601        -0.042505         0.454343
 O         1.470676         0.067349         0.665650
 O        -0.500409         1.047144         0.399107
 H        -2.895464        -2.624758         0.636962
 H        -3.763883        -1.277634         1.752117
 H        -4.033053        -1.333268        -0.002393
 H        -1.705458        -0.490545         1.786709
 H        -2.385454         1.127825        -0.578606
 H        -1.862828        -1.172376        -1.774229
 H        -0.318913        -0.125545        -1.831853
 H        -0.678600        -3.260429         0.552855
 H         0.525258        -3.024580        -0.738990
 H         0.768229        -2.500687         1.051835
