19
Iteration:  1597charge 0 multiplicity 1
 C        -3.101104        -1.672008         0.268612
 C        -1.898919        -0.749065         0.517597
 C        -1.665964         0.379499        -0.376490
 C        -0.943978        -0.578710        -1.336374
 C        -0.485872        -1.176856         0.119676
 C        -0.114432        -2.665949         0.431468
 C         0.294258         0.121688         0.651760
 O         1.378268         0.101686         1.221215
 O        -0.551741         1.157527         0.326032
 H        -2.955083        -2.201440        -0.733944
 H        -3.282448        -2.472051         0.961683
 H        -4.096185        -1.097036         0.201167
 H        -1.885903        -0.630728         1.591256
 H        -2.408884         1.067057        -0.812909
 H        -1.534384        -1.247931        -1.889646
 H        -0.149305        -0.164907        -2.033580
 H         0.856833        -3.035147         0.054074
 H        -0.036909        -2.706075         1.485074
 H        -1.044003        -3.215547         0.149148
