19
Iteration:  1165charge 0 multiplicity 1
 C        -3.123920        -1.565507         0.639711
 C        -1.982891        -0.682618         0.874677
 C        -1.789549         0.459381        -0.219437
 C        -1.260211        -0.582593        -1.194745
 C        -0.524166        -1.137736         0.104814
 C         0.087456        -2.567563         0.125837
 C         0.358037         0.000202         0.480586
 O         1.479871        -0.039708         0.968487
 O        -0.410510         1.086807         0.122654
 H        -2.713052        -2.567270         0.238258
 H        -3.426978        -1.942515         1.648796
 H        -3.905836        -1.151952        -0.046562
 H        -1.970802        -0.461928         1.952184
 H        -2.550418         1.176995        -0.645554
 H        -1.945438        -1.344916        -1.458839
 H        -0.691775        -0.366022        -2.145904
 H         1.082521        -2.514342         0.503113
 H        -0.499985        -3.441809         0.660560
 H         0.034905        -2.880455        -0.871216
