19
Iteration:  4691charge 0 multiplicity 1
 C        -3.077930        -1.866470        -0.023027
 C        -1.954838        -0.879889         0.599697
 C        -1.690992         0.475499        -0.134657
 C        -1.051093        -0.284472        -1.232745
 C        -0.500171        -1.127348         0.013610
 C         0.232681        -2.473450         0.145651
 C         0.237720        -0.053751         0.637106
 O         1.234885         0.033121         1.264317
 O        -0.544685         1.086136         0.552399
 H        -3.136115        -2.902363         0.428479
 H        -4.051447        -1.314658         0.307076
 H        -3.002383        -1.850283        -1.124300
 H        -2.095289        -0.936868         1.820753
 H        -2.579241         1.096159        -0.273772
 H        -1.362623        -0.955783        -2.004758
 H        -0.465593         0.413224        -1.807572
 H        -0.644650        -3.170515         0.069674
 H         0.933308        -2.752412        -0.633519
 H         0.704433        -2.675926         1.137529
