19
Iteration:  3683charge 0 multiplicity 1
 C        -3.176790        -1.751755         0.012453
 C        -1.995052        -0.852329         0.630352
 C        -1.603937         0.421965        -0.194383
 C        -0.852976        -0.485710        -1.116130
 C        -0.512783        -1.214418         0.153300
 C         0.089889        -2.566417         0.128692
 C         0.234916         0.005221         0.718623
 O         1.383099         0.240447         0.993856
 O        -0.696232         1.050191         0.638486
 H        -3.845924        -0.983831        -0.494681
 H        -2.826212        -2.385240        -0.866958
 H        -3.689566        -2.370593         0.761725
 H        -2.085745        -0.797847         1.713998
 H        -2.171288         1.177059        -0.742714
 H        -1.528056        -0.953979        -1.887419
 H        -0.092776        -0.072273        -1.781269
 H         1.144886        -2.398763        -0.128804
 H        -0.006747        -3.125837         1.130525
 H        -0.400975        -3.075377        -0.757953
