19
Iteration:   550
 C        -2.906806        -1.459653         1.041584
 C        -1.791084        -0.601745         0.929153
 C        -1.806594         0.397329        -0.132749
 C        -1.516898        -0.721863        -1.120055
 C        -0.546507        -1.178804         0.089268
 C        -0.055313        -2.552774         0.115411
 C         0.380590        -0.038125         0.233146
 O         1.549589        -0.014478         0.609453
 O        -0.462054         1.062682         0.040357
 H        -2.680660        -2.509598         1.097436
 H        -3.282481        -1.137663         2.083973
 H        -3.779889        -1.328492         0.390194
 H        -1.475270        -0.277632         1.964146
 H        -2.615460         1.116544        -0.113374
 H        -2.469278        -1.237535        -1.156083
 H        -0.954557        -0.479782        -2.086043
 H         0.250426        -2.898235        -0.816751
 H         0.907166        -2.498213         0.638429
 H        -0.687555        -3.317381         0.735443
