19
Iteration:  4896
 C        -3.177564        -1.825912        -0.111518
 C        -2.010222        -0.912684         0.568049
 C        -1.712272         0.396475        -0.128945
 C        -0.906488        -0.276751        -1.247003
 C        -0.528712        -1.206642         0.094334
 C         0.052093        -2.609807         0.209573
 C         0.333382        -0.017010         0.731213
 O         1.435291         0.287013         1.081580
 O        -0.635880         1.036690         0.682063
 H        -2.953035        -2.779687         0.379067
 H        -4.171552        -1.453562         0.200092
 H        -3.197897        -1.911192        -1.177140
 H        -2.146621        -0.859727         1.660606
 H        -2.466053         1.161111        -0.352106
 H        -1.429120        -0.886662        -2.020418
 H        -0.008551         0.198391        -1.723333
 H        -0.717715        -3.319502        -0.147030
 H         0.853330        -2.651184        -0.515663
 H         0.533800        -2.903621         1.146388
