19
Iteration:   253charge 0 multiplicity 1
 C        -2.924108        -1.375936         1.452557
 C        -1.745758        -0.573820         1.009580
 C        -1.760972         0.419260        -0.056799
 C        -1.546835        -0.674931        -1.098940
 C        -0.641212        -1.254297        -0.040792
 C         0.026701        -2.599720        -0.102515
 C         0.337394        -0.084319         0.157388
 O         1.540060        -0.015156         0.254117
 O        -0.443856         1.034012         0.255696
 H        -2.986569        -2.435604         1.085018
 H        -2.703974        -1.484824         2.476488
 H        -3.885123        -0.829652         1.333477
 H        -1.302779        -0.080462         1.896168
 H        -2.532630         1.255412        -0.069884
 H        -2.459008        -1.280113        -1.192283
 H        -1.249888        -0.381781        -2.050828
 H         1.050939        -2.660332         0.164287
 H        -0.488833        -3.319059         0.551296
 H        -0.222186        -3.027187        -1.196976
