19
Iteration:   292
 C        -2.998258        -1.470062         1.462573
 C        -1.761944        -0.751370         1.026488
 C        -1.770232         0.440152         0.021228
 C        -1.527768        -0.537963        -1.148899
 C        -0.632742        -1.258986         0.051593
 C         0.003686        -2.539206        -0.012861
 C         0.321136        -0.080103         0.133336
 O         1.537073        -0.059557         0.300242
 O        -0.388063         1.114245         0.016888
 H        -3.686373        -1.858441         0.712745
 H        -2.543389        -2.234564         2.192496
 H        -3.542106        -0.727987         2.087978
 H        -1.256477        -0.569932         1.993553
 H        -2.632805         1.100258        -0.047862
 H        -2.392692        -1.165246        -1.436774
 H        -0.788364        -0.144973        -1.946355
 H         0.917994        -2.487842        -0.745098
 H         0.325807        -2.805317         1.033140
 H        -0.693185        -3.277542        -0.326395
