19
Iteration:  4355
 C        -3.068847        -1.752487         0.092745
 C        -1.957471        -0.881289         0.630206
 C        -1.661906         0.414286        -0.151350
 C        -0.955557        -0.435645        -1.191617
 C        -0.424656        -1.153339         0.075708
 C         0.109465        -2.561914        -0.089661
 C         0.245285        -0.003922         0.665594
 O         1.305215         0.159657         1.309053
 O        -0.691832         1.101405         0.532354
 H        -2.793268        -2.805410         0.164017
 H        -4.037642        -1.484650         0.599090
 H        -3.275678        -1.529991        -0.913619
 H        -2.141381        -0.842061         1.712631
 H        -2.437898         1.086901        -0.556291
 H        -1.611281        -1.174959        -1.740422
 H        -0.203311         0.086346        -1.914542
 H        -0.022229        -3.017508        -1.156933
 H         1.199180        -2.504712         0.207144
 H        -0.240360        -3.154939         0.816904
