19
Iteration:  3453
 C        -3.081901        -1.754723         0.033811
 C        -1.992169        -0.816431         0.551313
 C        -1.693847         0.437692        -0.267449
 C        -0.829831        -0.434255        -1.152876
 C        -0.515013        -1.216063         0.148701
 C        -0.039154        -2.647037         0.230638
 C         0.289049         0.015126         0.688332
 O         1.404502         0.217107         1.054986
 O        -0.674090         1.112692         0.588092
 H        -2.725212        -2.438171        -0.712382
 H        -3.575168        -2.411636         0.787861
 H        -3.788177        -1.182937        -0.539696
 H        -2.217448        -0.608551         1.588283
 H        -2.397739         1.097663        -0.776886
 H        -1.370096        -1.087800        -1.775135
 H        -0.014108         0.028101        -1.782111
 H         1.091810        -2.742435         0.285505
 H        -0.297440        -3.098473         1.329689
 H        -0.350305        -3.494744        -0.432285
