19
Iteration:  4806charge 0 multiplicity 1
 C        -3.006921        -1.777184         0.227607
 C        -1.844454        -0.867070         0.590848
 C        -1.747752         0.512609        -0.285372
 C        -1.106092        -0.341745        -1.397816
 C        -0.553148        -1.116852        -0.069481
 C         0.276668        -2.543804        -0.009556
 C         0.224394         0.036296         0.753275
 O         1.208681        -0.047923         1.457718
 O        -0.599640         1.083064         0.515966
 H        -3.161626        -2.695982         0.845258
 H        -3.995853        -1.329086         0.316517
 H        -3.005695        -2.109088        -0.854472
 H        -1.806834        -0.690641         1.700438
 H        -2.519930         1.305131        -0.259987
 H        -1.791718        -0.990564        -1.964990
 H        -0.326596        -0.001060        -2.118554
 H        -0.011952        -3.270179        -0.732957
 H         1.326290        -2.270717        -0.171141
 H         0.318719        -2.998204         1.004975
