19
Iteration:  2264charge 0 multiplicity 1
 C        -3.226256        -1.654188        -0.002059
 C        -2.100498        -0.653928         0.329504
 C        -1.485920         0.483585        -0.591787
 C        -0.534852        -0.782703        -1.202591
 C        -0.551718        -1.267460         0.251169
 C         0.000856        -2.657176         0.598170
 C         0.095587         0.017153         0.856335
 O         1.226060         0.224544         1.237463
 O        -0.609015         1.158319         0.362163
 H        -3.119310        -2.105364        -0.988237
 H        -3.132757        -2.444452         0.777030
 H        -4.249972        -1.212008         0.096769
 H        -2.392926        -0.181115         1.313689
 H        -1.812235         1.348821        -1.319592
 H        -1.044945        -1.486168        -1.803139
 H         0.540781        -0.572586        -1.488906
 H        -0.506307        -3.347379         0.000089
 H         1.145368        -2.807762         0.340779
 H         0.012198        -2.793270         1.659357
