19
Iteration:   514
 C        -2.987200        -1.619794         1.337756
 C        -1.820741        -0.669475         0.919860
 C        -1.682059         0.474340        -0.184477
 C        -1.291378        -0.551951        -1.208582
 C        -0.710872        -1.209558        -0.014884
 C        -0.063874        -2.562208         0.200450
 C         0.310272        -0.052843         0.210830
 O         1.484026         0.008208         0.518466
 O        -0.434166         1.080301         0.029271
 H        -2.622848        -2.687242         1.402000
 H        -3.137112        -1.330949         2.351002
 H        -3.933347        -1.555847         0.783533
 H        -1.300512        -0.228444         1.805786
 H        -2.465659         1.209107        -0.315255
 H        -2.214921        -0.979745        -1.628178
 H        -0.663802        -0.441966        -2.019608
 H         0.956344        -2.673279        -0.186479
 H        -0.097693        -2.750304         1.245588
 H        -0.671355        -3.341846        -0.334301
