19
Iteration:  4116charge 0 multiplicity 1
 C        -3.109002        -1.814045         0.145054
 C        -1.976613        -0.959100         0.651861
 C        -1.730507         0.500778        -0.179772
 C        -0.932202        -0.341675        -1.273374
 C        -0.508244        -1.187372         0.022038
 C         0.102191        -2.574335         0.019212
 C         0.296255         0.003871         0.706429
 O         1.391014         0.208905         1.203575
 O        -0.666975         1.034375         0.567190
 H        -2.941916        -2.928039         0.194404
 H        -4.189266        -1.611470         0.572078
 H        -3.165625        -1.665109        -0.964139
 H        -2.213964        -0.640221         1.715127
 H        -2.505938         1.242134        -0.208654
 H        -1.537074        -0.960985        -1.957724
 H        -0.048469         0.184769        -1.695648
 H         1.006324        -2.485848        -0.647760
 H         0.544626        -2.880118         0.980293
 H        -0.547961        -3.342818        -0.361535
