19
Iteration:  1092
 C        -3.262986        -1.572322         0.810416
 C        -1.909817        -0.765454         0.783396
 C        -1.678552         0.398082        -0.264838
 C        -1.047980        -0.531794        -1.301251
 C        -0.628480        -1.234271         0.055041
 C         0.039469        -2.550944         0.208324
 C         0.308647        -0.010652         0.430973
 O         1.492094         0.061646         0.685587
 O        -0.497718         1.062682         0.402082
 H        -2.980398        -2.573539         0.676442
 H        -3.701376        -1.448612         1.816971
 H        -3.889885        -1.263286         0.028773
 H        -1.460473        -0.545862         1.749350
 H        -2.379209         1.254223        -0.498074
 H        -1.744399        -1.179761        -1.826972
 H        -0.335561         0.004250        -1.984531
 H        -0.805268        -3.051809         0.738405
 H         0.322384        -3.107099        -0.685151
 H         0.915739        -2.533560         0.939837
