19
Iteration:  3170
 C        -3.091597        -1.767018         0.079955
 C        -1.967153        -0.793975         0.404041
 C        -1.637933         0.467928        -0.441474
 C        -0.712866        -0.551130        -1.263874
 C        -0.483427        -1.184037         0.167198
 C        -0.015439        -2.655966         0.279794
 C         0.251694         0.063304         0.806416
 O         1.314823         0.187773         1.316527
 O        -0.722215         1.099876         0.502140
 H        -3.705512        -1.995721         0.960511
 H        -3.867154        -1.237431        -0.627113
 H        -2.762903        -2.621518        -0.549912
 H        -2.054182        -0.331516         1.429692
 H        -2.354074         1.301511        -0.815303
 H        -1.459604        -1.159799        -1.787254
 H         0.096298        -0.219509        -2.009231
 H        -0.938731        -3.230296         0.130414
 H         0.709155        -2.938433        -0.422750
 H         0.423799        -2.775213         1.264745
