19
Iteration:  2867charge 0 multiplicity 1
 C        -3.040244        -1.698550         0.273848
 C        -1.985895        -0.625731         0.426260
 C        -1.544732         0.389131        -0.653104
 C        -0.797763        -0.706724        -1.361815
 C        -0.459464        -1.111049         0.048107
 C         0.109456        -2.525571         0.415055
 C         0.183070        -0.008853         0.717981
 O         0.944905         0.061170         1.702096
 O        -0.527476         1.128601         0.152487
 H        -3.357492        -2.093804         1.273909
 H        -3.959534        -1.160011        -0.293479
 H        -2.670957        -2.556527        -0.326186
 H        -2.049533        -0.106536         1.337295
 H        -2.021105         1.333186        -1.195175
 H        -1.293042        -1.604103        -1.619935
 H         0.107950        -0.444378        -1.933190
 H        -0.579287        -3.347154         0.094489
 H         1.059898        -2.796829         0.141628
 H         0.187251        -2.469466         1.499127
