19
Iteration:  1955charge 0 multiplicity 1
 C        -3.158124        -1.585506         0.016661
 C        -2.092182        -0.595485         0.447818
 C        -1.560802         0.382091        -0.561576
 C        -0.809630        -0.812379        -1.368676
 C        -0.534894        -1.229464         0.212850
 C         0.142466        -2.464462         0.544828
 C         0.217001         0.012557         0.758945
 O         1.109167         0.135958         1.557299
 O        -0.441565         1.045314         0.212579
 H        -3.236446        -1.680322        -1.093141
 H        -2.897842        -2.571003         0.459045
 H        -4.181281        -1.204268         0.462916
 H        -2.390922        -0.230604         1.436310
 H        -2.111109         1.028061        -1.183715
 H        -1.600871        -1.381960        -1.878738
 H         0.054597        -0.541525        -1.965453
 H         0.416079        -2.983645        -0.389832
 H         0.972529        -2.303843         1.145817
 H        -0.466424        -3.178444         1.131082
