19
Iteration:   309
 C        -2.922608        -1.487015         1.331273
 C        -1.639808        -0.637441         1.071754
 C        -1.764796         0.485290        -0.053977
 C        -1.585119        -0.650322        -1.072974
 C        -0.648321        -1.157093        -0.001866
 C        -0.024510        -2.612274         0.014126
 C         0.342169        -0.053840         0.186711
 O         1.554483        -0.035751         0.305489
 O        -0.450698         1.059241         0.085435
 H        -3.597911        -1.482944         0.458192
 H        -2.788025        -2.534866         1.610284
 H        -3.553661        -1.136691         2.153616
 H        -1.202006        -0.198053         1.976629
 H        -2.418424         1.352274        -0.018582
 H        -2.473335        -1.275741        -1.088562
 H        -1.281446        -0.342354        -2.067082
 H         0.449778        -2.854903        -0.891651
 H         0.667791        -2.748935         0.833910
 H        -0.843709        -3.465146         0.075330
