19
Iteration:  1494
 C        -3.242564        -1.456476         0.301298
 C        -1.901744        -0.766320         0.672325
 C        -1.694016         0.387968        -0.327043
 C        -1.052597        -0.597896        -1.331066
 C        -0.436984        -1.273057         0.107199
 C         0.091772        -2.691860         0.374219
 C         0.346525         0.021153         0.578835
 O         1.340905         0.272098         1.242455
 O        -0.513544         0.990943         0.216590
 H        -3.081096        -2.478654         0.101623
 H        -3.947123        -1.516335         1.211773
 H        -3.684813        -1.159340        -0.635066
 H        -2.013608        -0.567699         1.775438
 H        -2.557602         1.035655        -0.511016
 H        -1.849613        -1.243735        -1.903298
 H        -0.335828        -0.289118        -2.032414
 H        -0.448387        -3.260606         1.192879
 H        -0.092590        -3.143799        -0.690304
 H         1.146536        -2.722813         0.676899
