19
Iteration:  3871charge 0 multiplicity 1
 C        -3.091283        -1.813918         0.182306
 C        -1.957160        -0.870476         0.581332
 C        -1.737072         0.460033        -0.184802
 C        -1.002334        -0.318330        -1.221068
 C        -0.438710        -1.110269        -0.011169
 C         0.182409        -2.469591         0.032041
 C         0.254227        -0.000690         0.633923
 O         1.291248        -0.021376         1.259889
 O        -0.635769         1.068854         0.572471
 H        -2.632267        -2.740286        -0.278906
 H        -3.796268        -2.198827         0.934909
 H        -3.683868        -1.406009        -0.694597
 H        -2.028777        -0.737909         1.654145
 H        -2.448497         1.257842        -0.412967
 H        -1.576698        -0.900768        -1.957076
 H        -0.339269         0.214025        -1.866300
 H         1.211440        -2.367206        -0.231474
 H         0.170651        -2.810449         1.062885
 H        -0.200086        -3.252894        -0.621885
