19
Iteration:  1261charge 0 multiplicity 1
 C        -3.028935        -1.639586         0.551714
 C        -1.922456        -0.672701         0.841524
 C        -1.687972         0.456975        -0.230740
 C        -1.143849        -0.591861        -1.194926
 C        -0.628981        -1.197887         0.147231
 C        -0.050239        -2.576855         0.201374
 C         0.299154        -0.050756         0.520633
 O         1.411839         0.083242         0.977671
 O        -0.430984         1.105224         0.122720
 H        -3.343523        -1.446901        -0.543269
 H        -2.571838        -2.626429         0.496207
 H        -3.957839        -1.594368         1.178033
 H        -1.727607        -0.672681         1.980903
 H        -2.337593         1.299056        -0.564302
 H        -1.965100        -1.220321        -1.493174
 H        -0.494119        -0.382988        -2.126440
 H        -0.708128        -3.195230        -0.415835
 H         0.981378        -2.593150        -0.350025
 H         0.084863        -2.966788         1.223659
