19
Iteration:   589
 C        -3.201677        -1.440025         1.080064
 C        -1.838874        -0.709074         1.002848
 C        -1.780403         0.398191        -0.060822
 C        -1.381443        -0.608419        -1.135755
 C        -0.559416        -1.261611         0.099680
 C         0.060941        -2.712321         0.110386
 C         0.391318         0.015999         0.255977
 O         1.600205         0.065277         0.524821
 O        -0.445222         1.107275         0.007832
 H        -2.990983        -2.461767         1.539705
 H        -3.634851        -0.940407         1.906691
 H        -3.824055        -1.597939         0.196163
 H        -1.823577        -0.348985         2.028859
 H        -2.532076         1.164540        -0.243284
 H        -2.122754        -1.335677        -1.573137
 H        -0.864732        -0.074906        -1.894692
 H        -0.652318        -3.431403        -0.447582
 H         1.070383        -2.545041        -0.367032
 H         0.314499        -3.044276         1.108414
