19
Iteration:  3432
 C        -3.169950        -1.761469         0.077193
 C        -2.057525        -0.798930         0.531106
 C        -1.714663         0.371231        -0.289445
 C        -0.732009        -0.472567        -1.267737
 C        -0.499324        -1.165035         0.224295
 C        -0.000701        -2.625879         0.256416
 C         0.250255         0.039684         0.789252
 O         1.409412         0.250809         1.026064
 O        -0.628541         1.036426         0.553261
 H        -3.138668        -1.992992        -0.992977
 H        -3.226879        -2.702907         0.698621
 H        -4.058952        -1.155345         0.148848
 H        -2.195237        -0.623991         1.617855
 H        -2.391859         1.176543        -0.553521
 H        -1.215948        -0.983538        -2.104719
 H         0.182335         0.129064        -1.482466
 H         1.091259        -2.863047         0.344696
 H        -0.506218        -3.347657         1.036417
 H        -0.257185        -2.931965        -0.783827
