19
Iteration:  1276
 C        -3.026357        -1.705602         0.447672
 C        -1.918098        -0.637331         0.798988
 C        -1.735052         0.469784        -0.226622
 C        -1.267412        -0.596169        -1.218117
 C        -0.498096        -1.155847         0.119227
 C        -0.091468        -2.606646         0.259174
 C         0.369486         0.029063         0.490295
 O         1.485581         0.032624         1.007723
 O        -0.448106         1.102572         0.177220
 H        -3.716262        -1.509625        -0.393107
 H        -2.622780        -2.785772         0.399841
 H        -3.750525        -1.733439         1.295654
 H        -2.027590        -0.150473         1.784565
 H        -2.496696         1.225975        -0.418132
 H        -1.938560        -1.360217        -1.678469
 H        -0.486051        -0.179470        -1.862209
 H        -0.924151        -3.321154         0.230538
 H         0.611886        -2.921338        -0.536326
 H         0.456769        -2.651913         1.201621
