19
Iteration:  3308charge 0 multiplicity 1
 C        -3.110076        -1.732661         0.384048
 C        -1.941754        -0.774816         0.497713
 C        -1.624011         0.381101        -0.514427
 C        -0.694587        -0.556616        -1.369060
 C        -0.445001        -1.143156        -0.002776
 C         0.010952        -2.553939         0.050275
 C         0.206466         0.037625         0.728849
 O         1.089791         0.154636         1.546256
 O        -0.577109         1.098227         0.461979
 H        -3.934768        -1.429880         1.052037
 H        -3.588030        -1.767022        -0.576530
 H        -2.708941        -2.790536         0.548333
 H        -2.034568        -0.287429         1.450875
 H        -2.227555         1.257172        -0.914468
 H        -1.392934        -1.266778        -1.950185
 H         0.069409        -0.206151        -2.075367
 H         0.495426        -2.710664        -0.965432
 H         0.789667        -3.036486         0.839302
 H        -0.811499        -3.352564         0.223768
