19
Iteration:   220charge 0 multiplicity 1
 C        -2.992420        -1.550704         1.320699
 C        -1.646924        -0.656215         1.209282
 C        -1.730444         0.437990         0.105514
 C        -1.600429        -0.600543        -0.973512
 C        -0.579849        -1.221815         0.040621
 C        -0.101644        -2.616354        -0.060764
 C         0.383137        -0.018738         0.100469
 O         1.580083         0.008811         0.263925
 O        -0.413603         1.091094        -0.063060
 H        -2.823846        -2.599599         0.970341
 H        -3.287031        -1.551030         2.333865
 H        -3.838793        -1.086060         0.760159
 H        -1.271047        -0.255866         2.167532
 H        -2.533529         1.251266         0.101845
 H        -2.464694        -1.259472        -1.074400
 H        -1.362392        -0.103820        -1.856356
 H         0.447967        -3.024416         0.770308
 H        -1.075532        -3.087962        -0.205519
 H         0.477608        -2.828718        -1.093554
