19
Iteration:  1691
 C        -3.211222        -1.508656         0.421712
 C        -1.938983        -0.707956         0.492272
 C        -1.563032         0.456637        -0.502385
 C        -0.834481        -0.629493        -1.371394
 C        -0.553431        -1.289815         0.044467
 C         0.185149        -2.581460         0.437132
 C         0.182458        -0.036776         0.671161
 O         1.121236         0.024000         1.415035
 O        -0.517936         1.110941         0.156331
 H        -4.064541        -0.862849         0.522764
 H        -3.323027        -1.911463        -0.633502
 H        -3.162639        -2.386044         1.083518
 H        -1.852496        -0.370684         1.562574
 H        -2.437497         1.178948        -0.600710
 H        -1.405953        -1.274099        -2.063645
 H        -0.088957        -0.092353        -2.000245
 H        -0.171823        -3.571398         0.118706
 H         1.208295        -2.529221         0.074618
 H         0.131417        -2.434912         1.517817
