19
Iteration:  2482
 C        -3.271908        -1.606932        -0.071291
 C        -2.106529        -0.790251         0.360710
 C        -1.551220         0.314764        -0.661362
 C        -0.596715        -0.640060        -1.231511
 C        -0.519825        -1.218025         0.230266
 C         0.034885        -2.519034         0.752582
 C         0.194208         0.080749         0.739676
 O         1.304604         0.080352         1.282480
 O        -0.616935         1.139357         0.402120
 H        -3.394695        -1.772055        -1.148994
 H        -3.251163        -2.577019         0.341433
 H        -4.182243        -1.074334         0.225507
 H        -2.234390        -0.392514         1.352592
 H        -2.158006         1.136765        -1.055054
 H        -1.203528        -1.262904        -1.945822
 H         0.333598        -0.180604        -1.698118
 H        -0.254538        -3.373423         0.131804
 H         1.190540        -2.421462         0.697056
 H        -0.356282        -2.713680         1.764651
