19
Iteration:  1393charge 0 multiplicity 1
 C        -3.089081        -1.560433         0.433088
 C        -1.867879        -0.727286         0.763570
 C        -1.786952         0.399048        -0.292592
 C        -1.081395        -0.582903        -1.273153
 C        -0.530742        -1.213253        -0.011550
 C         0.024717        -2.597275         0.335967
 C         0.341091        -0.012190         0.533091
 O         1.352290         0.108056         1.193375
 O        -0.483460         1.073098         0.142375
 H        -3.637687        -1.736110         1.359495
 H        -3.614394        -1.086202        -0.361937
 H        -2.911612        -2.567255         0.046111
 H        -1.757252        -0.365998         1.832013
 H        -2.461714         1.223435        -0.535207
 H        -1.813195        -1.296644        -1.610040
 H        -0.413342        -0.195694        -2.081231
 H         0.769347        -2.981926        -0.353913
 H         0.332656        -2.760952         1.458815
 H        -0.816018        -3.258755         0.047128
