19
Iteration:  4122charge 0 multiplicity 1
 C        -3.099743        -1.827735         0.088433
 C        -1.989640        -0.905088         0.677554
 C        -1.709319         0.442431        -0.169288
 C        -0.931377        -0.296896        -1.240485
 C        -0.507946        -1.209094         0.036905
 C         0.129122        -2.564189         0.048327
 C         0.280500        -0.023503         0.715272
 O         1.382594         0.196054         1.143138
 O        -0.663704         1.053953         0.586888
 H        -2.915640        -2.887418         0.219580
 H        -4.048742        -1.516183         0.430187
 H        -3.136386        -1.680819        -0.979351
 H        -2.171934        -0.732754         1.737541
 H        -2.599071         1.113722        -0.341161
 H        -1.737276        -0.740973        -1.839808
 H        -0.164627         0.163369        -1.940643
 H         1.027568        -2.470043        -0.535994
 H         0.410039        -2.912798         1.050577
 H        -0.535571        -3.385278        -0.305564
