19
Iteration:  4503
 C        -3.112713        -1.706510         0.337987
 C        -1.883558        -0.841679         0.545641
 C        -1.708463         0.384156        -0.262969
 C        -0.881608        -0.396005        -1.347768
 C        -0.441172        -1.159488        -0.073095
 C         0.211811        -2.513880        -0.194481
 C         0.230917         0.013003         0.670392
 O         1.143167         0.040663         1.544939
 O        -0.681398         1.079902         0.560300
 H        -2.986490        -2.727417         0.805086
 H        -4.130467        -1.478255         0.673321
 H        -2.905409        -1.948890        -0.750773
 H        -1.816873        -0.409213         1.623550
 H        -2.393867         1.198460        -0.502134
 H        -1.515246        -0.940071        -2.004902
 H        -0.081161        -0.094402        -2.006813
 H        -0.495308        -3.281434        -0.271696
 H         0.875149        -2.543513        -1.046439
 H         0.756437        -2.720086         0.752028
