19
Iteration:  2665charge 0 multiplicity 1
 C        -3.105928        -1.660922         0.054962
 C        -1.971713        -0.740976         0.468052
 C        -1.518087         0.339497        -0.518652
 C        -0.770969        -0.802913        -1.266713
 C        -0.530921        -1.190582         0.144857
 C        -0.026853        -2.601915         0.423895
 C         0.203672         0.086449         0.759931
 O         1.067710         0.244356         1.592742
 O        -0.474869         1.214594         0.153400
 H        -3.353117        -1.738005        -1.060541
 H        -2.783035        -2.639500         0.404824
 H        -4.009928        -1.341552         0.674485
 H        -2.129621        -0.320325         1.473041
 H        -2.076446         0.978975        -1.119888
 H        -1.475172        -1.456556        -1.739999
 H         0.190594        -0.668885        -1.776545
 H        -0.459732        -3.345244        -0.218931
 H         1.120864        -2.705846         0.217602
 H        -0.177450        -2.897115         1.462524
