19
Iteration:  4563charge 0 multiplicity 1
 C        -2.981466        -1.843227         0.255604
 C        -1.865865        -0.808204         0.549955
 C        -1.704587         0.526828        -0.250167
 C        -1.079798        -0.323074        -1.322347
 C        -0.458826        -1.143716        -0.017759
 C         0.198456        -2.472088         0.048447
 C         0.191402        -0.071888         0.719054
 O         1.154307        -0.077777         1.414798
 O        -0.596724         1.136925         0.440620
 H        -2.452213        -2.768237         0.469120
 H        -4.018971        -1.743869         0.598419
 H        -3.138836        -1.936053        -0.805918
 H        -1.839800        -0.654560         1.600345
 H        -2.402699         1.304043        -0.612277
 H        -1.761493        -1.058673        -1.812041
 H        -0.401179         0.315625        -1.926570
 H        -0.081082        -2.958455        -0.943354
 H         1.298882        -2.393722         0.110226
 H        -0.035694        -3.089301         0.899585
