19
Iteration:  2130
 C        -3.315470        -1.502371         0.184511
 C        -2.045339        -0.669840         0.354370
 C        -1.447589         0.341557        -0.723683
 C        -0.533039        -0.679454        -1.301192
 C        -0.478444        -1.235875         0.212160
 C         0.141046        -2.658984         0.419217
 C         0.128328         0.033087         0.834735
 O         1.068782         0.230857         1.603324
 O        -0.640010         0.988659         0.212732
 H        -3.466591        -2.080277        -0.765770
 H        -3.426010        -2.226196         0.947180
 H        -4.141807        -0.766825         0.367295
 H        -1.991791        -0.201568         1.344451
 H        -1.808493         1.156587        -1.362414
 H        -0.880226        -1.306442        -2.225144
 H         0.393857        -0.143614        -1.536694
 H        -0.680033        -3.483112         0.403459
 H         0.834802        -2.904078        -0.396100
 H         0.588359        -2.754965         1.457895
