19
Iteration:  2793
 C        -3.154153        -1.578676        -0.011053
 C        -1.932007        -0.811888         0.458447
 C        -1.605301         0.315969        -0.587513
 C        -0.711980        -0.802479        -1.283282
 C        -0.467425        -1.202414         0.194210
 C        -0.004890        -2.669379         0.544685
 C         0.163978         0.173598         0.765756
 O         1.158873         0.285166         1.494271
 O        -0.549832         1.151609         0.244664
 H        -3.034629        -2.630249        -0.304926
 H        -3.861523        -1.494471         0.811225
 H        -3.618493        -1.071759        -0.837353
 H        -2.011225        -0.682554         1.595628
 H        -2.403381         0.974919        -0.974045
 H        -1.328659        -1.510354        -1.806811
 H         0.093401        -0.345147        -2.027342
 H        -0.463145        -3.463183        -0.073912
 H         1.091481        -2.602296         0.254165
 H         0.018501        -2.910426         1.616597
