19
Iteration:  4335charge 0 multiplicity 1
 C        -3.091639        -1.793502         0.227930
 C        -1.858095        -0.843676         0.606836
 C        -1.820371         0.426968        -0.248109
 C        -0.989043        -0.402033        -1.310876
 C        -0.498041        -1.146360        -0.005944
 C         0.182249        -2.526551        -0.066745
 C         0.197044         0.018817         0.769886
 O         1.273342         0.097715         1.420112
 O        -0.549424         1.072894         0.473486
 H        -2.800740        -2.826886         0.187446
 H        -3.987828        -1.737214         0.865704
 H        -3.532630        -1.525067        -0.695717
 H        -1.890630        -0.671330         1.704424
 H        -2.591706         1.150013        -0.585802
 H        -1.502963        -1.067393        -2.051613
 H        -0.179597         0.057855        -1.938173
 H         0.140519        -2.720489        -1.127263
 H         1.203913        -2.487780         0.285274
 H        -0.220041        -3.363530         0.444100
