19
Iteration:  3957
 C        -3.187755        -1.822257         0.083240
 C        -1.971119        -0.959463         0.581473
 C        -1.678804         0.472853        -0.116398
 C        -0.895824        -0.372816        -1.140158
 C        -0.440232        -1.189513         0.139745
 C         0.088346        -2.590302        -0.040493
 C         0.283780        -0.047154         0.724813
 O         1.368384         0.287591         1.049288
 O        -0.653174         1.063618         0.626315
 H        -3.528451        -2.630293         0.753914
 H        -3.934103        -1.058844        -0.059294
 H        -3.043379        -2.274504        -0.945852
 H        -2.028322        -0.725173         1.625728
 H        -2.478447         1.186217        -0.375393
 H        -1.474197        -0.893336        -1.999111
 H        -0.004289         0.175761        -1.580040
 H         0.992925        -2.773686        -0.514959
 H         0.128690        -3.045939         0.963931
 H        -0.762956        -3.131311        -0.409412
