19
Iteration:   521
 C        -2.980956        -1.626122         1.320579
 C        -1.843891        -0.655417         1.036499
 C        -1.664036         0.501229        -0.225687
 C        -1.361593        -0.615865        -1.271421
 C        -0.594046        -1.192855        -0.020239
 C        -0.064838        -2.593789         0.163676
 C         0.308655        -0.043844         0.218072
 O         1.459399        -0.018770         0.531141
 O        -0.441523         1.125165         0.048175
 H        -2.652982        -2.669824         1.248501
 H        -3.290814        -1.399134         2.357225
 H        -3.834409        -1.426381         0.654789
 H        -1.303750        -0.299993         1.908452
 H        -2.427275         1.310048        -0.411986
 H        -2.316299        -1.070405        -1.549062
 H        -0.638219        -0.341153        -2.118085
 H         0.962548        -2.748418        -0.338146
 H         0.081292        -2.622741         1.316671
 H        -0.761261        -3.377278         0.004825
