19
Iteration:  3923charge 0 multiplicity 1
 C        -3.039214        -1.800304        -0.070228
 C        -1.975576        -0.851879         0.608807
 C        -1.732920         0.488689        -0.090123
 C        -0.964618        -0.393104        -1.240492
 C        -0.534532        -1.194024         0.143111
 C         0.158441        -2.517396         0.187016
 C         0.238854        -0.013186         0.648696
 O         1.441927         0.088975         0.931417
 O        -0.726808         1.077150         0.767960
 H        -2.995901        -2.889100         0.124865
 H        -3.996937        -1.479989         0.299841
 H        -3.017034        -1.588209        -1.136787
 H        -2.136307        -0.845396         1.687048
 H        -2.555952         1.170732        -0.178194
 H        -1.584357        -0.849522        -2.113330
 H        -0.118118         0.211538        -1.696781
 H         1.096503        -2.688276        -0.309323
 H         0.259570        -2.793374         1.259351
 H        -0.511077        -3.191901        -0.313160
