19
Iteration:   760charge 0 multiplicity 1
 C        -3.123526        -1.410048         1.115512
 C        -1.839087        -0.582670         0.919721
 C        -1.758793         0.456944        -0.249181
 C        -1.312156        -0.677387        -1.200353
 C        -0.595523        -1.275150         0.101975
 C         0.117304        -2.621372         0.023736
 C         0.337934        -0.060321         0.303208
 O         1.487510        -0.024944         0.677174
 O        -0.519035         1.057715         0.172033
 H        -2.718398        -2.385407         1.482060
 H        -3.843419        -0.967483         1.820523
 H        -3.665848        -1.700255         0.185831
 H        -1.611357        -0.181856         1.928016
 H        -2.378637         1.301753        -0.559442
 H        -2.173305        -1.268407        -1.665493
 H        -0.579887        -0.293600        -1.958548
 H         1.147042        -2.216531        -0.215915
 H         0.308480        -3.177181         1.013552
 H        -0.201729        -3.262797        -0.776481
