19
Iteration:  1747
 C        -3.007755        -1.676104         0.113633
 C        -2.037151        -0.603183         0.545009
 C        -1.570314         0.426735        -0.532688
 C        -0.895581        -0.709001        -1.207357
 C        -0.564871        -1.218577         0.270343
 C        -0.076306        -2.683607         0.410850
 C         0.236475         0.037532         0.731296
 O         1.289175         0.210757         1.298113
 O        -0.470226         1.112768         0.226525
 H        -3.521564        -2.058756         0.969382
 H        -3.812431        -1.229365        -0.522424
 H        -2.664518        -2.600150        -0.428010
 H        -2.250800        -0.296728         1.595720
 H        -2.368112         1.201903        -0.835507
 H        -1.700414        -1.206277        -1.653412
 H        -0.082578        -0.426999        -1.942031
 H        -0.951057        -3.098552         0.983608
 H         0.084562        -3.147564        -0.525172
 H         0.844882        -2.851649         1.035634
