19
Iteration:  1327
 C        -3.202135        -1.546969         0.552990
 C        -2.018785        -0.707215         0.681268
 C        -1.765484         0.424707        -0.350224
 C        -0.932492        -0.563258        -1.304786
 C        -0.567538        -1.227150         0.125968
 C         0.172068        -2.565142         0.338947
 C         0.276676        -0.013106         0.502795
 O         1.426578         0.004690         0.884326
 O        -0.526720         1.065016         0.392954
 H        -4.183297        -1.004634         0.420041
 H        -3.105519        -2.276497        -0.242758
 H        -3.500810        -2.073521         1.478760
 H        -1.940801        -0.218987         1.721602
 H        -2.605750         1.085136        -0.650863
 H        -1.548987        -1.205626        -1.870143
 H        -0.199824         0.046556        -1.914745
 H         0.343593        -2.822850         1.368257
 H        -0.569509        -3.417568         0.015654
 H         1.060572        -2.514891        -0.293980
