19
Iteration:  1353
 C        -3.285850        -1.533007         0.487150
 C        -2.003617        -0.753627         0.696949
 C        -1.669425         0.438134        -0.330315
 C        -0.963898        -0.671265        -1.186824
 C        -0.574693        -1.224557         0.194278
 C         0.108162        -2.546715         0.191722
 C         0.314491        -0.025755         0.600491
 O         1.463805         0.102689         0.960931
 O        -0.527397         1.107829         0.270068
 H        -4.220984        -1.096181         0.856836
 H        -3.440341        -1.723508        -0.673067
 H        -3.247171        -2.543233         0.959483
 H        -1.865325        -0.440561         1.753304
 H        -2.483754         1.045284        -0.686715
 H        -1.736019        -1.444400        -1.492196
 H        -0.300009        -0.424242        -1.977658
 H         1.029262        -2.420119         0.824077
 H        -0.465190        -3.235232         0.745996
 H         0.341594        -2.941876        -0.812598
