19
Iteration:  1232
 C        -3.231353        -1.511365         0.752989
 C        -1.957949        -0.692453         0.728800
 C        -1.758596         0.377566        -0.275863
 C        -1.074911        -0.574070        -1.293132
 C        -0.503405        -1.215493         0.029667
 C         0.132088        -2.620578         0.151609
 C         0.363057        -0.008879         0.499055
 O         1.461971         0.025856         1.005962
 O        -0.560752         1.098099         0.233642
 H        -3.613036        -1.752894        -0.267843
 H        -3.085480        -2.457918         1.353704
 H        -4.075565        -0.890704         1.118916
 H        -1.750990        -0.493225         1.772437
 H        -2.410181         1.191314        -0.642380
 H        -1.859245        -1.243236        -1.674604
 H        -0.378552        -0.186256        -2.047906
 H         0.112412        -2.991854        -0.859013
 H         1.182990        -2.669999         0.522691
 H        -0.473199        -3.207498         0.803748
