19
Iteration:  4762charge 0 multiplicity 1
 C        -3.109476        -1.820680         0.444141
 C        -1.906757        -0.865757         0.602570
 C        -1.720398         0.430552        -0.386421
 C        -0.918227        -0.360052        -1.375153
 C        -0.477574        -1.180612        -0.063100
 C         0.197136        -2.491407        -0.225772
 C         0.248301        -0.078346         0.770803
 O         1.130745         0.051437         1.617783
 O        -0.581871         1.160224         0.447096
 H        -2.966376        -2.739543         1.048010
 H        -4.055833        -1.416532         0.748488
 H        -3.139730        -2.108273        -0.654712
 H        -1.829417        -0.726493         1.692687
 H        -2.338943         1.220880        -0.823722
 H        -1.448547        -0.736221        -2.268320
 H        -0.171387         0.310815        -1.869959
 H        -0.447421        -3.093548        -0.823855
 H         1.071940        -2.233975        -0.852643
 H         0.467754        -3.129372         0.627234
