19
Iteration:   979charge 0 multiplicity 1
 C        -2.995571        -1.711081         0.989551
 C        -1.822135        -0.677350         0.777409
 C        -1.683557         0.434464        -0.270069
 C        -1.173148        -0.611153        -1.292951
 C        -0.591575        -1.158220         0.022311
 C        -0.120113        -2.542116         0.042635
 C         0.303190         0.024153         0.489993
 O         1.464762        -0.003867         0.798251
 O        -0.474220         1.157102         0.270789
 H        -3.274157        -1.713398         2.072029
 H        -3.956458        -1.353458         0.641558
 H        -2.967196        -2.736274         0.570049
 H        -1.666731        -0.310933         1.800986
 H        -2.447823         1.163912        -0.492102
 H        -2.125908        -1.053524        -1.684505
 H        -0.491638        -0.340792        -2.107491
 H         0.851817        -2.720030        -0.435931
 H        -0.292905        -3.082383         1.066563
 H        -0.779970        -3.067471        -0.619106
