19
Iteration:   740charge 0 multiplicity 1
 C        -3.274942        -1.482003         1.231561
 C        -1.941658        -0.707188         0.887708
 C        -1.787337         0.383810        -0.231664
 C        -1.235598        -0.547757        -1.231188
 C        -0.554842        -1.219798         0.043069
 C         0.181287        -2.611638         0.034187
 C         0.324216        -0.017355         0.429765
 O         1.526471        -0.035915         0.582209
 O        -0.426500         1.109709         0.119552
 H        -2.980425        -2.196772         2.043720
 H        -3.945618        -0.715698         1.508657
 H        -3.716376        -1.962086         0.338935
 H        -1.578714        -0.236880         1.818057
 H        -2.489209         1.178019        -0.365543
 H        -1.921079        -1.394890        -1.618126
 H        -0.567292        -0.278597        -2.059544
 H         1.307077        -2.773019         0.145848
 H        -0.451165        -3.057420         0.845912
 H        -0.090879        -2.985187        -0.836681
