19
Iteration:   335
 C        -2.881316        -1.503006         1.152632
 C        -1.717107        -0.601062         1.103001
 C        -1.812451         0.428024         0.035516
 C        -1.566226        -0.691093        -1.014311
 C        -0.577447        -1.171643         0.037916
 C        -0.151798        -2.659793         0.083779
 C         0.388518        -0.036621         0.094711
 O         1.576782         0.032759         0.310426
 O        -0.388831         1.114322         0.077104
 H        -3.825373        -1.166194         0.750886
 H        -2.705238        -2.585573         0.830914
 H        -3.036665        -1.641896         2.233692
 H        -1.497343        -0.245531         2.112681
 H        -2.517293         1.239946        -0.058538
 H        -2.509206        -1.275107        -1.129582
 H        -1.186582        -0.271743        -2.028331
 H        -0.441604        -3.171138        -0.916950
 H         0.956289        -2.797449         0.275870
 H        -0.722175        -3.274788         0.808479
