19
Iteration:  2367
 C        -3.091778        -1.662226         0.315009
 C        -2.011277        -0.647491         0.375166
 C        -1.483351         0.350600        -0.800374
 C        -0.537711        -0.701443        -1.307123
 C        -0.561649        -1.166233         0.155223
 C        -0.069323        -2.554771         0.387598
 C         0.173107         0.048674         0.764414
 O         0.996740         0.114400         1.666036
 O        -0.520914         1.126205         0.207381
 H        -3.115998        -2.370920        -0.568805
 H        -2.947726        -2.380061         1.239174
 H        -4.041553        -1.076553         0.325455
 H        -2.244473        -0.133619         1.332355
 H        -2.086959         1.020198        -1.376533
 H        -0.975492        -1.422509        -2.064793
 H         0.369503        -0.286463        -1.727831
 H        -0.829509        -3.342370         0.123708
 H         0.698705        -2.675127        -0.285900
 H         0.223725        -2.842409         1.401706
