19
Iteration:  3090charge 0 multiplicity 1
 C        -3.167495        -1.572585         0.330836
 C        -1.935639        -0.745463         0.433621
 C        -1.589424         0.453264        -0.495081
 C        -0.775422        -0.571163        -1.449748
 C        -0.435593        -1.196078         0.009303
 C         0.255455        -2.475553         0.293477
 C         0.162340        -0.050483         0.724047
 O         0.982460         0.014654         1.621203
 O        -0.611964         1.032683         0.297050
 H        -2.880325        -2.721299         0.240361
 H        -3.803298        -1.382865         1.224521
 H        -3.803125        -1.329488        -0.631192
 H        -1.779420        -0.328003         1.428218
 H        -2.158115         1.208233        -1.003178
 H        -1.420586        -1.386108        -2.001998
 H        -0.036260        -0.195197        -2.174995
 H        -0.271284        -3.363899         0.306822
 H         1.064541        -2.540319        -0.471183
 H         0.663636        -2.486350         1.287295
