19
Iteration:   576charge 0 multiplicity 1
 C        -3.163022        -1.489155         1.099901
 C        -1.825707        -0.658602         1.084960
 C        -1.822028         0.411365        -0.081114
 C        -1.422724        -0.641123        -1.103127
 C        -0.578112        -1.262961         0.106372
 C         0.075755        -2.707417         0.098990
 C         0.356781        -0.005752         0.236278
 O         1.527244         0.092689         0.553987
 O        -0.333855         1.137337        -0.043216
 H        -3.049061        -2.597319         1.128009
 H        -3.976830        -1.159422         1.722427
 H        -3.573260        -1.259016         0.104918
 H        -1.286662        -0.357411         1.969072
 H        -2.633404         1.196054        -0.132008
 H        -2.359496        -1.199272        -1.410295
 H        -0.724651        -0.347344        -1.955701
 H        -0.358767        -3.408412        -0.742601
 H         1.228582        -2.771328        -0.155795
 H        -0.108343        -3.191130         1.002363
