19
Iteration:  3157
 C        -3.053957        -1.759912         0.048094
 C        -2.027301        -0.713124         0.553122
 C        -1.592882         0.401696        -0.406014
 C        -0.779935        -0.573566        -1.316117
 C        -0.507575        -1.168482         0.078090
 C        -0.043690        -2.579531         0.255700
 C         0.220387         0.036948         0.743602
 O         1.219085         0.203341         1.419941
 O        -0.565457         1.093373         0.433760
 H        -3.365810        -2.371279         0.961551
 H        -3.949024        -1.317756        -0.479884
 H        -2.608108        -2.658415        -0.492577
 H        -2.225589        -0.528201         1.623882
 H        -2.381012         1.181993        -0.702138
 H        -1.292533        -1.368254        -1.967824
 H         0.126975        -0.196618        -1.863599
 H        -0.756854        -3.355308         0.322095
 H         0.580865        -2.783392        -0.607321
 H         0.517623        -2.728211         1.124120
