19
Iteration:  1727charge 0 multiplicity 1
 C        -3.140199        -1.646389         0.244407
 C        -1.927824        -0.709879         0.558960
 C        -1.589939         0.373048        -0.452754
 C        -0.876597        -0.735565        -1.351195
 C        -0.519707        -1.144756         0.091881
 C        -0.134334        -2.528444         0.413174
 C         0.305721         0.023957         0.657624
 O         1.245186         0.159733         1.417432
 O        -0.499033         1.091743         0.211952
 H        -3.847609        -1.790519         0.971258
 H        -3.506977        -1.387169        -0.699009
 H        -2.809634        -2.682347         0.079956
 H        -2.017592        -0.245372         1.543947
 H        -2.176461         1.285524        -0.778960
 H        -1.446429        -1.516183        -1.760036
 H        -0.045586        -0.339055        -1.975868
 H        -0.980164        -3.176534         0.799950
 H         0.496449        -2.891899        -0.372492
 H         0.678756        -2.520143         1.220034
