19
Iteration:   701
 C        -3.006954        -1.432050         0.961529
 C        -1.745941        -0.641365         0.938064
 C        -1.780255         0.447848        -0.144934
 C        -1.445509        -0.630784        -1.207014
 C        -0.553743        -1.244860         0.054543
 C        -0.008167        -2.686684         0.160046
 C         0.328529        -0.045347         0.342960
 O         1.518919         0.071859         0.537997
 O        -0.449998         1.055887         0.233575
 H        -3.132742        -1.914609         1.930218
 H        -4.026067        -1.001135         0.766824
 H        -2.851687        -2.273003         0.276887
 H        -1.454437        -0.209995         1.911029
 H        -2.544357         1.235980        -0.290997
 H        -2.299424        -1.121510        -1.602961
 H        -0.861779        -0.265389        -2.059570
 H         0.623587        -2.841934         1.025469
 H        -0.864129        -3.325523         0.248718
 H         0.554661        -3.188689        -0.798482
