19
Iteration:  3835
 C        -3.115045        -1.740199         0.349047
 C        -1.907778        -0.862411         0.597576
 C        -1.681987         0.428885        -0.265677
 C        -0.977184        -0.442458        -1.271706
 C        -0.394451        -1.184981        -0.019925
 C         0.151699        -2.567274        -0.284423
 C         0.322051         0.034744         0.683737
 O         1.151111         0.158456         1.547955
 O        -0.626064         1.040651         0.474256
 H        -2.796976        -2.595756        -0.284923
 H        -3.651936        -2.066092         1.265195
 H        -3.741411        -1.123960        -0.278034
 H        -1.746676        -0.605199         1.636683
 H        -2.443050         1.164888        -0.515803
 H        -1.746643        -1.166250        -1.671113
 H        -0.263828         0.200723        -1.842270
 H         1.112740        -2.512300        -0.697170
 H         0.275799        -3.129232         0.619741
 H        -0.482286        -3.008393        -0.988728
