19
Iteration:  2859
 C        -3.076473        -1.732689         0.281397
 C        -2.027449        -0.625023         0.453251
 C        -1.559745         0.444728        -0.657874
 C        -0.723188        -0.679656        -1.313665
 C        -0.421820        -1.130317         0.061197
 C         0.106163        -2.497586         0.461214
 C         0.199361         0.027406         0.740557
 O         0.911441        -0.038892         1.681913
 O        -0.523304         1.165836         0.066369
 H        -3.125653        -2.258106         1.277544
 H        -4.082790        -1.374232         0.074520
 H        -2.752039        -2.483878        -0.442240
 H        -2.116521        -0.053445         1.401120
 H        -1.956466         1.206364        -1.299127
 H        -1.386891        -1.392200        -1.813299
 H         0.059007        -0.435662        -2.135839
 H        -0.432704        -3.335819         0.107547
 H         1.110838        -2.651477         0.055449
 H         0.185999        -2.592499         1.536615
