19
Iteration:  4678charge 0 multiplicity 1
 C        -3.110534        -1.811106        -0.063115
 C        -2.023251        -0.957403         0.621880
 C        -1.744887         0.438632        -0.099873
 C        -0.986378        -0.291279        -1.255870
 C        -0.494854        -1.178316         0.016336
 C         0.191649        -2.504546         0.164710
 C         0.292395         0.055830         0.663540
 O         1.351763         0.028703         1.196131
 O        -0.619735         1.082671         0.589351
 H        -3.131188        -2.836734         0.358503
 H        -4.100841        -1.394250         0.016306
 H        -2.954278        -2.011314        -1.102210
 H        -2.238859        -0.702067         1.703898
 H        -2.403901         1.297377        -0.296503
 H        -1.841085        -0.656238        -1.818388
 H        -0.142227         0.207969        -1.775664
 H        -0.376795        -3.451114         0.119039
 H         1.064267        -2.574193        -0.514048
 H         0.610193        -2.347273         1.224320
