19
Iteration:  4369charge 0 multiplicity 1
 C        -3.100491        -1.793389         0.009528
 C        -1.938276        -0.906650         0.639237
 C        -1.804566         0.455244        -0.240378
 C        -0.934130        -0.395876        -1.190672
 C        -0.530073        -1.208215         0.065742
 C         0.154981        -2.596701         0.044530
 C         0.254772         0.058750         0.715909
 O         1.377828         0.174630         1.223844
 O        -0.630359         1.085176         0.623277
 H        -3.040791        -2.845767         0.206759
 H        -4.028352        -1.474727         0.460955
 H        -3.078491        -1.751992        -1.082496
 H        -1.821428        -0.686476         1.724785
 H        -2.576328         1.277022        -0.430363
 H        -1.627276        -0.923845        -1.862922
 H        -0.134737         0.132447        -1.726177
 H        -0.192237        -3.025566        -0.856379
 H         1.198409        -2.568992        -0.180027
 H        -0.197324        -3.303892         0.726894
