19
Iteration:  2858charge 0 multiplicity 1
 C        -3.074845        -1.735684         0.284546
 C        -2.029922        -0.621787         0.455396
 C        -1.555438         0.446855        -0.658656
 C        -0.718885        -0.679304        -1.317128
 C        -0.419406        -1.139423         0.068622
 C         0.110790        -2.494253         0.465607
 C         0.197979         0.034312         0.741979
 O         0.908965        -0.046123         1.679516
 O        -0.519146         1.167604         0.062155
 H        -3.109863        -2.274584         1.277057
 H        -4.135327        -1.385357         0.097116
 H        -2.770194        -2.477060        -0.467356
 H        -2.125988        -0.080899         1.392709
 H        -2.017500         1.206639        -1.328836
 H        -1.389208        -1.338211        -1.835490
 H         0.053845        -0.431086        -2.133795
 H        -0.437908        -3.333744         0.103416
 H         1.066983        -2.609460         0.059167
 H         0.181260        -2.606396         1.532981
