19
Iteration:   956
 C        -3.079304        -1.664337         0.960947
 C        -1.899191        -0.559797         0.878094
 C        -1.813400         0.515577        -0.208277
 C        -1.189248        -0.508621        -1.200277
 C        -0.564165        -1.212324         0.088510
 C         0.005368        -2.653401         0.041755
 C         0.355432        -0.083400         0.388014
 O         1.480560        -0.012563         0.783092
 O        -0.484663         1.118243         0.148230
 H        -3.460975        -1.968911         1.991923
 H        -4.050494        -1.637526         0.482593
 H        -2.639467        -2.545692         0.407708
 H        -1.736483        -0.355084         1.931920
 H        -2.370903         1.388045        -0.393318
 H        -1.858954        -1.201204        -1.826928
 H        -0.472922        -0.004307        -1.823430
 H         1.100026        -2.531899         0.172603
 H        -0.538750        -3.406276         0.770052
 H         0.003616        -3.090348        -0.977762
