19
Iteration:   140
 C        -2.946848        -1.503470         1.571778
 C        -1.729630        -0.705476         1.199708
 C        -1.761392         0.437901         0.012330
 C        -1.462741        -0.460566        -1.186656
 C        -0.655523        -1.225565         0.056234
 C        -0.017590        -2.573810        -0.071542
 C         0.292514        -0.051066         0.137404
 O         1.500480        -0.089311        -0.000500
 O        -0.393759         1.062121         0.181911
 H        -2.781187        -2.113081         2.454012
 H        -3.906170        -0.967795         1.930191
 H        -3.241788        -2.300247         0.882806
 H        -1.280126        -0.231723         2.126631
 H        -2.521377         1.198831         0.053962
 H        -2.337610        -0.962174        -1.580998
 H        -0.772224        -0.069310        -1.979519
 H        -0.938179        -3.332803        -0.187783
 H         0.594198        -2.686258        -0.999466
 H         0.552310        -2.783469         0.757902
