19
Iteration:  2214
 C        -3.003660        -1.744675        -0.023462
 C        -1.943221        -0.724212         0.480684
 C        -1.600430         0.360232        -0.525435
 C        -0.735429        -0.563758        -1.259263
 C        -0.516095        -1.219089         0.163410
 C        -0.166901        -2.589503         0.672314
 C         0.229291         0.055369         0.694538
 O         1.130375         0.130470         1.461211
 O        -0.473377         1.177955         0.148271
 H        -2.699785        -2.170707        -0.980483
 H        -3.330351        -2.489544         0.731406
 H        -3.891980        -1.189390        -0.307693
 H        -2.076175        -0.522654         1.546949
 H        -2.257782         0.989301        -1.012898
 H        -1.444350        -1.180191        -1.894370
 H         0.082487        -0.156675        -1.847436
 H        -0.408779        -3.389623        -0.089774
 H         0.795467        -2.697366         1.090828
 H        -0.753732        -2.674356         1.623286
