19
Iteration:  4854
 C        -3.037780        -1.823987         0.034519
 C        -2.008778        -0.911180         0.584561
 C        -1.646618         0.388444        -0.204373
 C        -0.854679        -0.330421        -1.303032
 C        -0.541390        -1.198633         0.192091
 C         0.107361        -2.513073         0.088753
 C         0.211874        -0.066202         0.756487
 O         1.351567         0.115754         1.086598
 O        -0.668407         1.163278         0.679560
 H        -3.241398        -2.776714         0.421960
 H        -3.982605        -1.400036         0.305525
 H        -3.140963        -1.832336        -0.983234
 H        -2.307876        -0.580900         1.509490
 H        -2.540250         0.963334        -0.450575
 H        -1.420123        -0.887555        -2.067458
 H        -0.254257         0.395521        -1.865199
 H        -0.583556        -3.162727        -0.542430
 H         1.116052        -2.407729        -0.382911
 H         0.354675        -2.974978         1.068535
