19
Iteration:  1370charge 0 multiplicity 1
 C        -3.203293        -1.541742         0.383542
 C        -1.959182        -0.718017         0.743786
 C        -1.664022         0.380226        -0.281235
 C        -1.140775        -0.699733        -1.243864
 C        -0.530992        -1.230735         0.171590
 C         0.075577        -2.644824         0.239679
 C         0.295008         0.026391         0.568785
 O         1.386261         0.184317         1.057696
 O        -0.432047         1.101911         0.220733
 H        -3.873204        -1.270386         1.221398
 H        -3.582063        -1.410839        -0.575082
 H        -3.147215        -2.618737         0.562168
 H        -1.845274        -0.430375         1.819745
 H        -2.263769         1.274959        -0.513973
 H        -1.901995        -1.244862        -1.741524
 H        -0.235586        -0.371821        -1.848887
 H         1.165507        -2.606723         0.193935
 H        -0.166982        -3.285394         1.197950
 H        -0.190243        -3.131322        -0.723091
