19
Iteration:  4655charge 0 multiplicity 1
 C        -3.080517        -1.761263        -0.047348
 C        -1.981001        -0.886321         0.555769
 C        -1.723062         0.439943        -0.193570
 C        -0.939152        -0.379021        -1.259431
 C        -0.509906        -1.165397         0.109500
 C         0.188325        -2.459825         0.144260
 C         0.228589        -0.063232         0.767504
 O         1.368364         0.096594         1.034569
 O        -0.687734         1.043117         0.741965
 H        -3.268869        -2.636997         0.561296
 H        -3.946098        -1.182704        -0.016475
 H        -3.036467        -2.161547        -1.038677
 H        -2.271026        -0.591118         1.543561
 H        -2.460827         1.243023        -0.292210
 H        -1.373036        -1.177335        -1.850883
 H        -0.169957         0.301558        -1.676204
 H        -0.441302        -3.238611        -0.300738
 H         1.135288        -2.415610        -0.450607
 H         0.428780        -2.737427         1.231755
