19
Iteration:  4121charge 0 multiplicity 1
 C        -3.105274        -1.826187         0.101159
 C        -1.987446        -0.916422         0.679180
 C        -1.711551         0.455393        -0.172760
 C        -0.927150        -0.301278        -1.248524
 C        -0.507094        -1.207715         0.031396
 C         0.123427        -2.564312         0.042521
 C         0.285237        -0.020303         0.714514
 O         1.384874         0.199419         1.153573
 O        -0.666276         1.049930         0.581969
 H        -2.921524        -2.881696         0.200550
 H        -4.037635        -1.541240         0.432826
 H        -3.136388        -1.677510        -0.973536
 H        -2.199463        -0.715279         1.711132
 H        -2.599558         1.137388        -0.308936
 H        -1.714514        -0.770595        -1.849186
 H        -0.158756         0.152708        -1.891135
 H         1.023941        -2.457395        -0.550474
 H         0.444626        -2.925792         1.058570
 H        -0.550481        -3.398041        -0.312010
