19
Iteration:  4240
 C        -3.073291        -1.796841         0.263791
 C        -1.920019        -0.907604         0.653150
 C        -1.683314         0.427658        -0.211517
 C        -1.030211        -0.395295        -1.287294
 C        -0.469727        -1.192855         0.049485
 C         0.126188        -2.560409        -0.151984
 C         0.279972         0.028989         0.736900
 O         1.280298         0.144322         1.391546
 O        -0.619162         1.129954         0.423020
 H        -3.201572        -2.591142         1.048089
 H        -4.055407        -1.294371         0.141167
 H        -2.956226        -2.409274        -0.731351
 H        -1.884306        -0.774465         1.759958
 H        -2.536545         1.163812        -0.378170
 H        -1.799846        -0.671744        -2.037017
 H        -0.209879         0.077432        -1.765741
 H         1.114430        -2.311436        -0.570514
 H         0.310309        -3.201106         0.799101
 H        -0.426998        -3.275725        -0.870629
