19
Iteration:  4303
 C        -3.112968        -1.856148         0.401269
 C        -1.881824        -0.765389         0.548947
 C        -1.759672         0.480604        -0.227477
 C        -0.976965        -0.389362        -1.422229
 C        -0.422281        -1.088394        -0.127074
 C         0.285935        -2.462051        -0.006587
 C         0.137534         0.003901         0.660217
 O         1.085725        -0.101624         1.440008
 O        -0.520881         1.122515         0.486622
 H        -2.551702        -2.774276         0.379581
 H        -3.748673        -1.717040         1.285151
 H        -3.604731        -1.891108        -0.576531
 H        -1.783934        -0.655874         1.664666
 H        -2.513220         1.243027        -0.516369
 H        -1.723893        -1.004749        -1.920535
 H        -0.112845         0.011149        -1.912427
 H         0.635157        -2.655197        -0.970663
 H         1.170361        -2.422006         0.561396
 H        -0.362649        -3.207299         0.308498
