19
Iteration:   189charge 0 multiplicity 1
 C        -2.826436        -1.587921         1.291054
 C        -1.569445        -0.664323         1.160520
 C        -1.700970         0.481894         0.093037
 C        -1.701517        -0.570588        -1.039925
 C        -0.711220        -1.227806        -0.016703
 C        -0.158724        -2.628857         0.087352
 C         0.388643        -0.038420         0.111383
 O         1.573311        -0.012147         0.168164
 O        -0.415318         1.133019         0.079545
 H        -2.765361        -2.692632         1.273815
 H        -3.488071        -1.452489         2.094933
 H        -3.533507        -1.398058         0.473173
 H        -1.026388        -0.388863         2.052327
 H        -2.507701         1.236543        -0.003672
 H        -2.685568        -1.046684        -1.270528
 H        -1.441398        -0.112889        -1.985505
 H        -0.385722        -3.143431         0.960822
 H        -0.645912        -3.188293        -0.710882
 H         1.015279        -2.576786        -0.091391
