19
Iteration:  1104charge 0 multiplicity 1
 C        -3.179016        -1.616167         0.793283
 C        -1.890536        -0.794372         0.835683
 C        -1.764224         0.399175        -0.223971
 C        -1.055052        -0.498102        -1.357193
 C        -0.489006        -1.148374        -0.005180
 C        -0.095570        -2.593632         0.277624
 C         0.360683         0.002841         0.437478
 O         1.531260         0.034877         0.727785
 O        -0.526844         1.086253         0.340847
 H        -3.177658        -2.637036         0.552136
 H        -3.763205        -1.501742         1.719529
 H        -3.890576        -1.195339         0.100876
 H        -1.883016        -0.395853         1.868230
 H        -2.550824         1.166176        -0.406946
 H        -1.750511        -1.114288        -1.976877
 H        -0.271668        -0.062039        -1.991291
 H        -0.623174        -3.235029         1.020034
 H        -0.122191        -3.111734        -0.623413
 H         1.016886        -2.530530         0.570007
