19
Iteration:  2971charge 0 multiplicity 1
 C        -3.141836        -1.790871        -0.045726
 C        -2.070270        -0.755408         0.408374
 C        -1.632594         0.445307        -0.475860
 C        -0.677499        -0.477676        -1.318964
 C        -0.547215        -1.172745         0.230190
 C         0.087122        -2.466787         0.678761
 C         0.234250        -0.015594         0.706971
 O         1.324129         0.003749         1.201599
 O        -0.685787         1.104646         0.429282
 H        -3.883440        -1.489158        -0.818212
 H        -2.656930        -2.675752        -0.371446
 H        -3.775208        -2.181426         0.807781
 H        -2.338810        -0.345210         1.446923
 H        -2.247372         1.262943        -0.810633
 H        -1.291516        -1.014943        -2.186474
 H         0.153321         0.055180        -1.823487
 H        -0.440088        -3.310747         0.331974
 H         1.194297        -2.356962         0.487213
 H        -0.264916        -2.536239         1.683410
