19
Iteration:   222
 C        -2.999986        -1.548779         1.330712
 C        -1.646951        -0.664987         1.230103
 C        -1.731324         0.445750         0.072188
 C        -1.606159        -0.615859        -0.987216
 C        -0.602737        -1.230249         0.030676
 C        -0.090442        -2.612803        -0.059557
 C         0.394408        -0.029162         0.111826
 O         1.585410         0.013062         0.264006
 O        -0.413228         1.111392        -0.042909
 H        -2.811522        -2.575311         0.952747
 H        -3.258006        -1.542032         2.359226
 H        -3.793322        -1.033689         0.762831
 H        -1.253357        -0.285625         2.166692
 H        -2.522310         1.214880         0.048986
 H        -2.502732        -1.278493        -1.041479
 H        -1.335864        -0.129559        -1.931400
 H         0.489105        -3.027426         0.711611
 H        -1.071803        -3.100722        -0.179884
 H         0.412167        -2.823323        -1.134442
