19
Iteration:   716charge 0 multiplicity 1
 C        -3.125175        -1.479213         1.109505
 C        -1.834961        -0.695398         0.920421
 C        -1.700005         0.407089        -0.132498
 C        -1.268748        -0.624724        -1.264145
 C        -0.659078        -1.244717         0.004806
 C        -0.025565        -2.603072         0.128008
 C         0.390461        -0.041826         0.241656
 O         1.553047         0.062540         0.587620
 O        -0.501126         1.061933         0.234657
 H        -3.163158        -1.845353         2.143348
 H        -3.841373        -0.656222         0.919776
 H        -3.411788        -2.239817         0.352716
 H        -1.434351        -0.340193         1.890886
 H        -2.545861         1.137546        -0.184728
 H        -2.079369        -1.316951        -1.652302
 H        -0.573086        -0.342286        -2.119748
 H         0.951322        -2.487570         0.657634
 H        -0.660638        -3.398227         0.630552
 H         0.303227        -2.785436        -0.874761
