19
Iteration:   538charge 0 multiplicity 1
 C        -2.964834        -1.539147         1.183045
 C        -1.719176        -0.580999         0.942939
 C        -1.859308         0.442349        -0.205746
 C        -1.489110        -0.663623        -1.183035
 C        -0.610726        -1.176283         0.001803
 C         0.006400        -2.604086         0.192099
 C         0.374585        -0.004262         0.240400
 O         1.551964        -0.057988         0.596751
 O        -0.443881         1.113816         0.082476
 H        -2.624547        -2.575057         1.059372
 H        -3.442076        -1.477140         2.201959
 H        -3.726717        -1.362809         0.415823
 H        -1.364827        -0.021186         1.850134
 H        -2.570757         1.223267        -0.370212
 H        -2.214808        -1.455651        -1.416933
 H        -1.097673        -0.408658        -2.172526
 H         0.376324        -2.920986        -0.741057
 H         0.701141        -2.732459         0.975524
 H        -0.916724        -3.310839         0.280717
