19
Iteration:  3578
 C        -3.056283        -1.776009         0.339835
 C        -1.914331        -0.864542         0.597564
 C        -1.647450         0.486085        -0.355183
 C        -0.933904        -0.486983        -1.322699
 C        -0.499938        -1.212821         0.041530
 C         0.129662        -2.516262        -0.173917
 C         0.213300        -0.006450         0.763790
 O         1.081161         0.136413         1.559321
 O        -0.506448         1.128651         0.354316
 H        -3.591078        -1.892832         1.340290
 H        -3.758796        -1.212932        -0.307649
 H        -2.928653        -2.829564        -0.100305
 H        -1.864981        -0.694799         1.739466
 H        -2.372223         1.285732        -0.487026
 H        -1.317938        -1.266910        -2.094908
 H        -0.052057         0.110486        -1.662091
 H         0.900211        -2.748207        -0.960215
 H         0.652599        -2.870147         0.722764
 H        -0.673640        -3.253522        -0.442232
