19
Iteration:  1439
 C        -3.067953        -1.705465         0.583895
 C        -2.058632        -0.550062         0.582488
 C        -1.680550         0.505526        -0.484075
 C        -1.008129        -0.599664        -1.306700
 C        -0.512700        -1.182648         0.077471
 C         0.059276        -2.548755         0.298551
 C         0.234391        -0.021496         0.615758
 O         1.313384        -0.024290         1.187772
 O        -0.467337         1.053483         0.232365
 H        -2.543882        -2.386756         1.195885
 H        -4.122211        -1.399793         0.816937
 H        -3.180754        -2.163671        -0.384424
 H        -2.198534        -0.125343         1.616443
 H        -2.309922         1.268442        -0.875446
 H        -1.593318        -1.325240        -1.948189
 H        -0.227037        -0.116310        -1.804383
 H        -0.338446        -3.372463        -0.306180
 H         1.181888        -2.488320         0.260171
 H        -0.104385        -2.789178         1.333169
