19
Iteration:  3295
 C        -3.143231        -1.762189         0.308254
 C        -1.983503        -0.767403         0.416658
 C        -1.572795         0.418782        -0.464020
 C        -0.752410        -0.480272        -1.278516
 C        -0.435379        -1.202352         0.041383
 C         0.032893        -2.658851         0.067287
 C         0.229677         0.095858         0.765205
 O         1.189944         0.122887         1.521997
 O        -0.648794         1.149645         0.379275
 H        -3.765036        -1.685563         1.259472
 H        -3.715171        -1.701024        -0.588694
 H        -2.776798        -2.819195         0.458775
 H        -1.957338        -0.455405         1.477298
 H        -2.327123         1.076088        -0.892474
 H        -1.420013        -1.088425        -2.047672
 H         0.154452        -0.061090        -1.738742
 H         0.389661        -3.193241        -0.880876
 H         0.860247        -2.562482         0.899682
 H        -0.919991        -3.245821         0.410731
