19
Iteration:  4757charge 0 multiplicity 1
 C        -3.068580        -1.838619         0.432018
 C        -1.920123        -0.809530         0.528975
 C        -1.664880         0.398097        -0.355528
 C        -0.915182        -0.347543        -1.351486
 C        -0.515309        -1.180191        -0.023689
 C         0.191313        -2.493999        -0.274909
 C         0.225167        -0.089233         0.805511
 O         1.139408         0.070040         1.607591
 O        -0.589442         1.147591         0.434724
 H        -2.945803        -2.726105         1.068958
 H        -4.066625        -1.373103         0.783775
 H        -3.354797        -2.118530        -0.614716
 H        -1.792655        -0.726817         1.660038
 H        -2.358924         1.137482        -0.775187
 H        -1.536334        -0.830632        -2.123670
 H        -0.179992         0.299681        -1.806418
 H        -0.542622        -3.180530        -0.792155
 H         1.132269        -2.355046        -0.822272
 H         0.539011        -2.936392         0.676623
