19
Iteration:  4954charge 0 multiplicity 1
 C        -3.052883        -1.873950         0.239975
 C        -1.999134        -0.796614         0.636529
 C        -1.662621         0.498246        -0.298756
 C        -1.002552        -0.301422        -1.320694
 C        -0.482802        -1.114663        -0.066692
 C         0.300526        -2.423846         0.004008
 C         0.166726        -0.092374         0.744557
 O         1.195432        -0.058588         1.371029
 O        -0.599909         1.087120         0.518465
 H        -3.236560        -2.770275         0.779289
 H        -4.002156        -1.358129         0.351394
 H        -3.031137        -2.181157        -0.800952
 H        -2.007682        -0.493982         1.640931
 H        -2.292107         1.310257        -0.690274
 H        -1.658415        -1.048525        -1.829082
 H        -0.136379         0.080410        -1.887724
 H        -0.225860        -3.252682        -0.564838
 H         1.332635        -2.303152        -0.465941
 H         0.204338        -2.846354         1.026482
