19
Iteration:  4720charge 0 multiplicity 1
 C        -3.009900        -1.837753         0.216128
 C        -1.946138        -0.799324         0.625901
 C        -1.619677         0.418616        -0.299476
 C        -0.968550        -0.368789        -1.319679
 C        -0.508441        -1.155616        -0.055250
 C         0.148594        -2.507694        -0.115880
 C         0.248119         0.048763         0.727029
 O         1.216013        -0.005531         1.474250
 O        -0.668089         1.122774         0.555083
 H        -2.840354        -2.854442         0.544747
 H        -3.855692        -1.448334         0.649327
 H        -3.140728        -1.843489        -0.831520
 H        -1.952325        -0.484882         1.628641
 H        -2.512681         0.987166        -0.588898
 H        -1.585429        -0.995144        -1.996642
 H        -0.225201         0.206073        -1.961835
 H        -0.540695        -3.363204        -0.152899
 H         0.845908        -2.661607        -0.965886
 H         0.594928        -2.655903         0.922940
