19
Iteration:   545charge 0 multiplicity 1
 C        -2.934245        -1.493923         1.100011
 C        -1.764672        -0.577800         0.906140
 C        -1.857284         0.386745        -0.155241
 C        -1.507217        -0.685983        -1.144655
 C        -0.588560        -1.159750         0.049778
 C        -0.024765        -2.585407         0.157875
 C         0.407870        -0.018266         0.241183
 O         1.550729        -0.042522         0.606213
 O        -0.455043         1.083849         0.063877
 H        -2.592114        -2.564919         1.081647
 H        -3.269370        -1.266700         2.072205
 H        -3.759773        -1.321740         0.400014
 H        -1.316061        -0.100912         1.781466
 H        -2.640995         1.164178        -0.201625
 H        -2.406436        -1.325960        -1.193371
 H        -1.009574        -0.472379        -2.051711
 H         0.315959        -2.880654        -0.903286
 H         0.819480        -2.683689         0.878692
 H        -0.745103        -3.259268         0.559370
