19
Iteration:  3325charge 0 multiplicity 1
 C        -3.050667        -1.702311         0.363371
 C        -1.931863        -0.708516         0.532194
 C        -1.593403         0.440432        -0.466993
 C        -0.865032        -0.533823        -1.403488
 C        -0.458056        -1.179401         0.055868
 C         0.113111        -2.549225         0.016810
 C         0.198824        -0.035487         0.794065
 O         1.082331         0.107591         1.607170
 O        -0.605404         1.059756         0.281790
 H        -3.956689        -1.150148         0.720280
 H        -3.256524        -2.008026        -0.698911
 H        -2.807722        -2.631703         0.857354
 H        -1.866857        -0.400949         1.621186
 H        -2.350626         1.149065        -0.697396
 H        -1.449691        -1.259255        -1.987888
 H         0.032170        -0.065920        -1.806767
 H         0.881545        -2.750665        -0.715250
 H         0.541419        -2.724458         0.939229
 H        -0.673471        -3.274226        -0.102840
