19
Iteration:  3783
 C        -3.043359        -1.741231         0.334970
 C        -1.957806        -0.767529         0.595873
 C        -1.662400         0.456533        -0.285119
 C        -0.982451        -0.452864        -1.348462
 C        -0.423835        -1.138737        -0.108749
 C         0.241719        -2.438932        -0.093202
 C         0.183652        -0.028108         0.693760
 O         1.081287        -0.068049         1.458473
 O        -0.578301         1.100704         0.518070
 H        -2.981627        -2.330616        -0.639108
 H        -2.661564        -2.491320         1.051313
 H        -4.020348        -1.310318         0.719492
 H        -1.942297        -0.493853         1.656058
 H        -2.450539         1.157560        -0.513892
 H        -1.767196        -1.027706        -1.970920
 H        -0.200371        -0.133161        -2.028467
 H         1.033113        -2.448554        -0.908897
 H         0.826261        -2.471216         0.871392
 H        -0.471584        -3.305434        -0.273753
