19
Iteration:  1964charge 0 multiplicity 1
 C        -3.202424        -1.528663        -0.063345
 C        -2.072847        -0.676365         0.441307
 C        -1.501135         0.318319        -0.559456
 C        -0.915885        -0.790118        -1.276484
 C        -0.482791        -1.162446         0.254464
 C         0.150281        -2.531125         0.525546
 C         0.242883         0.026107         0.780214
 O         1.162069         0.169135         1.579377
 O        -0.488682         1.090065         0.163559
 H        -3.157369        -1.752833        -1.113859
 H        -3.058678        -2.542384         0.406093
 H        -4.279081        -1.285072         0.184227
 H        -2.235644        -0.260838         1.457799
 H        -2.169498         1.064031        -1.000565
 H        -1.497757        -1.590955        -1.680287
 H        -0.058050        -0.611636        -2.014095
 H         0.273126        -3.034001        -0.481913
 H         1.098898        -2.549639         1.064325
 H        -0.619246        -3.105848         1.117796
