19
Iteration:  3410charge 0 multiplicity 1
 C        -3.187743        -1.741541         0.124788
 C        -2.008860        -0.829845         0.548435
 C        -1.622148         0.425527        -0.329286
 C        -0.786856        -0.473922        -1.215614
 C        -0.533693        -1.192323         0.100308
 C         0.062744        -2.571144         0.245374
 C         0.248013         0.012198         0.707490
 O         1.352762         0.133465         1.148758
 O        -0.669156         1.120065         0.498798
 H        -3.506830        -1.569160        -0.899355
 H        -2.829887        -2.822285         0.225354
 H        -4.053168        -1.546784         0.726892
 H        -1.963962        -0.693409         1.654526
 H        -2.328001         1.155285        -0.708975
 H        -1.537809        -1.040357        -1.740070
 H         0.074667        -0.044600        -1.797591
 H         1.127651        -2.456109         0.587596
 H        -0.421212        -3.128843         1.152009
 H         0.128656        -3.114026        -0.691188
