19
Iteration:  4385
 C        -3.080235        -1.804307         0.020244
 C        -2.029123        -0.901673         0.530537
 C        -1.717786         0.384051        -0.101962
 C        -0.931285        -0.306363        -1.290384
 C        -0.488486        -1.158901         0.092308
 C         0.110232        -2.535825         0.068506
 C         0.256103         0.000696         0.798211
 O         1.381053         0.152558         1.110373
 O        -0.639810         1.064764         0.638922
 H        -3.015985        -2.786748         0.581388
 H        -4.120982        -1.439788         0.230129
 H        -3.090739        -1.957545        -1.086664
 H        -2.332912        -0.881193         1.571093
 H        -2.497285         1.101221        -0.310269
 H        -1.346233        -0.913887        -2.092364
 H        -0.128652         0.293541        -1.757194
 H        -0.363680        -3.350609        -0.577723
 H         1.219889        -2.417868        -0.045136
 H         0.071871        -2.913315         1.144040
