19
Iteration:  4085charge 0 multiplicity 1
 C        -3.085387        -1.792053         0.362366
 C        -1.911595        -0.910068         0.611029
 C        -1.660878         0.428846        -0.297365
 C        -0.911507        -0.352156        -1.302386
 C        -0.403514        -1.120451         0.002149
 C         0.133336        -2.560474        -0.159012
 C         0.214450         0.018037         0.762681
 O         1.218353         0.077221         1.409716
 O        -0.672380         1.108483         0.473811
 H        -2.901206        -2.855656         0.549038
 H        -3.985041        -1.688829         1.010392
 H        -3.383259        -1.649672        -0.694495
 H        -1.832783        -0.335301         1.556524
 H        -2.491239         1.092462        -0.505763
 H        -1.644301        -1.017239        -1.819532
 H        -0.223500        -0.030587        -2.008721
 H         0.747748        -2.597101        -1.123096
 H         0.819458        -2.825958         0.721199
 H        -0.655384        -3.261618        -0.514564
