19
Iteration:  2132
 C        -3.295771        -1.483179         0.187926
 C        -2.065155        -0.674158         0.358992
 C        -1.435240         0.322170        -0.735486
 C        -0.531954        -0.681116        -1.279646
 C        -0.478805        -1.245847         0.209477
 C         0.138255        -2.660965         0.415767
 C         0.106400         0.044920         0.828690
 O         1.060535         0.216375         1.592246
 O        -0.629853         1.000124         0.212366
 H        -3.484979        -2.103280        -0.745538
 H        -3.416593        -2.258997         1.003541
 H        -4.195573        -0.767205         0.365878
 H        -1.997711        -0.244347         1.357463
 H        -1.848047         1.221011        -1.361793
 H        -0.831648        -1.238100        -2.174900
 H         0.438741        -0.221629        -1.475955
 H        -0.576263        -3.465644         0.396138
 H         0.881050        -2.783084        -0.410126
 H         0.562924        -2.726328         1.394332
