19
Iteration:  2944charge 0 multiplicity 1
 C        -3.117184        -1.684740        -0.102336
 C        -2.042377        -0.757790         0.460158
 C        -1.600758         0.440799        -0.529195
 C        -0.745409        -0.696227        -1.222821
 C        -0.574021        -1.212166         0.255610
 C         0.124870        -2.508638         0.547431
 C         0.152513        -0.005185         0.802653
 O         1.287665         0.161591         1.238052
 O        -0.633884         1.114415         0.417478
 H        -4.042993        -1.049755        -0.288117
 H        -2.813456        -2.256776        -1.076924
 H        -3.418872        -2.483662         0.599079
 H        -2.284274        -0.378957         1.420989
 H        -2.194005         1.286176        -1.018713
 H        -1.419934        -1.157890        -1.850509
 H         0.225240        -0.443923        -1.756635
 H        -0.494335        -3.394026         0.198288
 H         1.109581        -2.485681         0.132165
 H         0.184627        -2.622255         1.665469
