19
Iteration:  1295charge 0 multiplicity 1
 C        -3.116586        -1.685804         0.529728
 C        -1.946772        -0.765386         0.714911
 C        -1.748894         0.451812        -0.302039
 C        -1.111548        -0.558350        -1.322536
 C        -0.577092        -1.166019         0.055710
 C        -0.031284        -2.558279         0.384715
 C         0.340421         0.016753         0.470962
 O         1.467020         0.034490         0.958673
 O        -0.416405         1.134578         0.322200
 H        -3.871207        -1.247741        -0.227356
 H        -2.806823        -2.695508         0.161712
 H        -3.661506        -1.898332         1.487172
 H        -1.675132        -0.539789         1.806380
 H        -2.514812         1.240624        -0.473069
 H        -1.947647        -1.112987        -1.677457
 H        -0.604539        -0.096767        -2.213269
 H        -0.715901        -3.104564         0.999469
 H         0.075332        -3.153636        -0.611008
 H         0.914737        -2.571336         0.906995
