19
Iteration:  4724
 C        -3.015458        -1.847922         0.252501
 C        -1.963719        -0.779670         0.610596
 C        -1.646380         0.445178        -0.312963
 C        -0.948601        -0.396811        -1.350838
 C        -0.469215        -1.152220        -0.036480
 C         0.166570        -2.501256        -0.131944
 C         0.242479         0.013605         0.701191
 O         1.188320         0.010546         1.489462
 O        -0.653306         1.127314         0.580219
 H        -2.821232        -2.893540         0.576586
 H        -4.022335        -1.455480         0.678373
 H        -3.212595        -1.868489        -0.844702
 H        -1.717525        -0.519236         1.709779
 H        -2.460198         1.056152        -0.736325
 H        -1.597833        -1.038732        -1.935606
 H        -0.206715         0.196655        -1.863698
 H        -0.654321        -3.282596        -0.262797
 H         0.804743        -2.643341        -0.999015
 H         0.622446        -2.786303         0.841535
