19
Iteration:   782
 C        -3.014291        -1.490059         0.980885
 C        -1.747138        -0.652860         0.945825
 C        -1.731157         0.439412        -0.137626
 C        -1.411969        -0.745960        -1.244300
 C        -0.568723        -1.181483         0.008242
 C        -0.006453        -2.521220         0.106566
 C         0.318593        -0.063069         0.352047
 O         1.446349         0.012233         0.729084
 O        -0.407867         1.083688         0.099885
 H        -2.953357        -2.606306         1.118638
 H        -3.687854        -1.036580         1.711385
 H        -3.606483        -1.401371         0.041284
 H        -1.547851        -0.365669         1.989005
 H        -2.493961         1.199886        -0.221703
 H        -2.374038        -1.343707        -1.267311
 H        -0.967817        -0.503162        -2.229756
 H         0.903881        -2.581470        -0.581581
 H         0.481460        -2.690706         1.147999
 H        -0.733730        -3.286074        -0.097113
