19
Iteration:  4951charge 0 multiplicity 1
 C        -3.027423        -1.855320         0.228180
 C        -2.007193        -0.811692         0.628151
 C        -1.665563         0.486181        -0.290541
 C        -0.996930        -0.317653        -1.314132
 C        -0.506024        -1.120417        -0.046139
 C         0.290261        -2.416721         0.015168
 C         0.187244        -0.071080         0.733470
 O         1.192192        -0.066532         1.346281
 O        -0.610150         1.070127         0.528083
 H        -3.223212        -2.769383         0.800423
 H        -3.998944        -1.348054         0.296895
 H        -2.943372        -2.039857        -0.817842
 H        -2.047439        -0.449092         1.671638
 H        -2.290871         1.339265        -0.566015
 H        -1.615455        -0.998862        -1.963939
 H        -0.158491         0.102027        -1.929726
 H        -0.251886        -3.195713        -0.562587
 H         1.301391        -2.322238        -0.364683
 H         0.304199        -2.761070         1.053781
