19
Iteration:  4802charge 0 multiplicity 1
 C        -2.991119        -1.738964         0.242436
 C        -1.832270        -0.905899         0.572676
 C        -1.743938         0.518699        -0.285979
 C        -1.095923        -0.357190        -1.367593
 C        -0.521266        -1.139140        -0.108793
 C         0.257337        -2.524236        -0.000763
 C         0.217003        -0.008801         0.763378
 O         1.186709        -0.047326         1.470590
 O        -0.607042         1.114027         0.502673
 H        -3.023601        -2.618632         0.938255
 H        -4.064618        -1.312999         0.351063
 H        -3.044128        -2.175574        -0.810490
 H        -1.779516        -0.644725         1.708701
 H        -2.589249         1.209619        -0.411039
 H        -1.820504        -0.968909        -1.898557
 H        -0.352806         0.078287        -2.016545
 H        -0.080624        -3.166302        -0.861537
 H         1.304068        -2.244619        -0.240514
 H         0.380476        -3.018962         0.942651
