19
Iteration:  4682
 C        -3.097821        -1.839208        -0.054901
 C        -1.998192        -0.955237         0.646382
 C        -1.694933         0.435996        -0.113119
 C        -1.006136        -0.270240        -1.243087
 C        -0.494021        -1.170019         0.013672
 C         0.202593        -2.498840         0.160989
 C         0.265973         0.033574         0.621971
 O         1.317912         0.029734         1.219831
 O        -0.600799         1.089628         0.579334
 H        -3.198124        -2.879692         0.352407
 H        -4.169772        -1.363950         0.060823
 H        -3.014426        -1.959302        -1.182475
 H        -2.370996        -0.628460         1.700589
 H        -2.372232         1.289795        -0.245951
 H        -1.764849        -0.788589        -1.833921
 H        -0.259408         0.329608        -1.733196
 H        -0.472566        -3.371598         0.115198
 H         1.064385        -2.650705        -0.473045
 H         0.644644        -2.383621         1.124704
