19
Iteration:   497
 C        -2.954010        -1.533593         1.345241
 C        -1.858919        -0.642117         0.899565
 C        -1.875986         0.448987        -0.212786
 C        -1.404734        -0.593542        -1.314798
 C        -0.578350        -1.202226         0.058968
 C        -0.088132        -2.630638         0.185774
 C         0.358330        -0.055827         0.276967
 O         1.583250         0.007658         0.481001
 O        -0.419950         1.068786         0.097196
 H        -2.532800        -2.511948         1.447512
 H        -3.341090        -1.186232         2.364352
 H        -3.793594        -1.582650         0.638122
 H        -1.384345        -0.214461         1.807563
 H        -2.540919         1.310393        -0.296239
 H        -2.055432        -1.354225        -1.774074
 H        -0.752380         0.078895        -2.001884
 H         0.982963        -2.405354         0.288379
 H        -0.416384        -3.199343         1.106327
 H        -0.259281        -3.315931        -0.697043
