19
Iteration:  3867charge 0 multiplicity 1
 C        -3.070228        -1.781838         0.213665
 C        -1.948406        -0.867983         0.553750
 C        -1.697498         0.439113        -0.181512
 C        -1.010022        -0.365059        -1.238265
 C        -0.440731        -1.139524        -0.032720
 C         0.185489        -2.478875        -0.009054
 C         0.210979         0.017255         0.682392
 O         1.282260        -0.005761         1.276382
 O        -0.632146         1.093314         0.574234
 H        -2.613436        -2.634922        -0.281191
 H        -3.796718        -2.187383         0.908576
 H        -3.675367        -1.460580        -0.604133
 H        -1.996301        -0.781546         1.647727
 H        -2.439577         1.197744        -0.392786
 H        -1.664479        -0.923385        -1.966357
 H        -0.329349         0.269552        -1.881604
 H         1.238576        -2.345198        -0.240269
 H         0.112132        -2.855671         1.017947
 H        -0.306382        -3.217665        -0.619305
