19
Iteration:  2608
 C        -3.318197        -1.587689         0.276193
 C        -1.949822        -0.832821         0.434866
 C        -1.489477         0.421455        -0.647672
 C        -0.688209        -0.672676        -1.436583
 C        -0.474123        -1.189432         0.094322
 C         0.240423        -2.527406         0.522315
 C         0.157297         0.049989         0.700754
 O         0.944425         0.059648         1.663026
 O        -0.497702         1.153281         0.166826
 H        -3.448294        -2.140330        -0.668240
 H        -3.746570        -2.145025         1.120421
 H        -4.008948        -0.715872         0.167790
 H        -2.102498        -0.342186         1.484536
 H        -2.069132         1.140826        -1.335096
 H        -1.406084        -1.344642        -1.851872
 H         0.182220        -0.672099        -2.177795
 H        -0.290120        -3.429211        -0.032876
 H         1.299865        -2.521668         0.122676
 H         0.388272        -2.832525         1.613685
