19
Iteration:  3063charge 0 multiplicity 1
 C        -3.324029        -1.686817         0.306799
 C        -1.995130        -0.784937         0.503572
 C        -1.618026         0.368604        -0.561799
 C        -0.660431        -0.540755        -1.302953
 C        -0.462837        -1.218380         0.119298
 C         0.196521        -2.581253         0.178415
 C         0.194941         0.056586         0.735119
 O         1.072213         0.112409         1.549055
 O        -0.540927         1.140390         0.274903
 H        -3.158553        -2.591160        -0.162093
 H        -3.739323        -1.759193         1.304999
 H        -3.994112        -1.190436        -0.296407
 H        -1.997689        -0.284240         1.485724
 H        -2.132298         1.094585        -1.275039
 H        -1.113050        -1.218017        -1.936822
 H         0.218393        -0.123530        -1.824436
 H        -0.288972        -3.554099        -0.218732
 H         1.203971        -2.491991        -0.206520
 H         0.208314        -2.941119         1.257914
