19
Iteration:  2926
 C        -3.187451        -1.626721        -0.099703
 C        -2.071654        -0.776463         0.501194
 C        -1.594267         0.271346        -0.438329
 C        -0.735658        -0.635864        -1.249935
 C        -0.510442        -1.184794         0.277125
 C         0.062837        -2.567841         0.486134
 C         0.224916         0.094386         0.769637
 O         1.268987         0.240531         1.389913
 O        -0.583095         1.079458         0.258761
 H        -4.179711        -1.153454         0.134793
 H        -3.168845        -1.734762        -1.156192
 H        -3.242053        -2.661397         0.310405
 H        -2.353818        -0.524714         1.560517
 H        -2.264487         0.916466        -0.907655
 H        -1.111758        -1.543470        -1.772876
 H         0.152904        -0.280693        -1.825156
 H        -0.588877        -3.295287         0.097638
 H         0.914782        -2.484313        -0.197479
 H         0.295204        -2.899392         1.477334
