19
Iteration:   132charge 0 multiplicity 1
 C        -2.990472        -1.523569         1.577518
 C        -1.698843        -0.669808         1.182972
 C        -1.776351         0.503578         0.115524
 C        -1.428865        -0.524773        -1.136984
 C        -0.646094        -1.228928         0.057536
 C        -0.006881        -2.620518        -0.114027
 C         0.288816        -0.079150         0.085891
 O         1.459133        -0.074823         0.026526
 O        -0.397423         1.096473         0.136500
 H        -2.810307        -1.968460         2.548816
 H        -3.791306        -0.831665         1.612679
 H        -3.192072        -2.260883         0.811442
 H        -1.142174        -0.368744         2.082107
 H        -2.563171         1.284093        -0.030553
 H        -2.237393        -1.132699        -1.427994
 H        -0.863478        -0.049689        -1.876364
 H        -0.812652        -3.248960        -0.503925
 H         0.800634        -2.572529        -0.846674
 H         0.425897        -3.145512         0.794074
