19
Iteration:  1834charge 0 multiplicity 1
 C        -3.221195        -1.553226         0.000635
 C        -2.009373        -0.740699         0.517227
 C        -1.619237         0.371898        -0.499748
 C        -0.799719        -0.705569        -1.294873
 C        -0.561342        -1.195650         0.223302
 C         0.119332        -2.476715         0.601586
 C         0.182491        -0.016994         0.726244
 O         1.214171         0.108819         1.340824
 O        -0.465934         1.061683         0.221934
 H        -2.877778        -2.520296        -0.384936
 H        -3.870210        -1.791385         0.897370
 H        -3.770017        -0.999189        -0.853407
 H        -2.124671        -0.435725         1.583290
 H        -2.222162         1.257013        -0.816367
 H        -1.464864        -1.332863        -1.830721
 H         0.013648        -0.291703        -1.966486
 H         0.904606        -2.396459         1.377533
 H        -0.584610        -3.124153         0.991224
 H         0.619496        -2.952195        -0.249044
