19
Iteration:  4011charge 0 multiplicity 1
 C        -3.024723        -1.811594         0.349962
 C        -1.903709        -0.782282         0.613814
 C        -1.698398         0.462900        -0.176452
 C        -1.016921        -0.382436        -1.320953
 C        -0.504767        -1.134202        -0.059215
 C         0.266008        -2.454676        -0.076799
 C         0.212700         0.046059         0.630199
 O         1.094815        -0.107122         1.421042
 O        -0.542711         1.111894         0.416610
 H        -3.234628        -2.392271         1.256846
 H        -3.969141        -1.457502         0.045195
 H        -2.732651        -2.556238        -0.412661
 H        -1.632150        -0.641480         1.645442
 H        -2.507148         1.213696        -0.175192
 H        -1.812338        -1.009579        -1.862177
 H        -0.565403         0.166158        -2.164516
 H         1.219549        -2.260561        -0.561598
 H         0.439722        -2.878360         0.973293
 H        -0.319822        -3.246928        -0.620184
