19
Iteration:   659charge 0 multiplicity 1
 C        -3.058624        -1.749309         0.985667
 C        -1.848811        -0.636434         1.019307
 C        -1.758530         0.429424        -0.089018
 C        -1.398871        -0.541582        -1.180052
 C        -0.636743        -1.138933         0.130274
 C        -0.128442        -2.519197         0.211380
 C         0.367933         0.007201         0.305952
 O         1.568426        -0.028466         0.452204
 O        -0.321574         1.083081         0.067485
 H        -3.282648        -2.197828         1.937397
 H        -4.008500        -1.148466         0.820089
 H        -2.891763        -2.541591         0.238279
 H        -1.555114        -0.590719         2.079749
 H        -2.365505         1.359267        -0.221156
 H        -2.076959        -1.214187        -1.632703
 H        -0.749231         0.078078        -1.868860
 H        -0.477386        -2.905105         1.124720
 H        -0.319643        -3.171736        -0.621943
 H         1.025594        -2.418543         0.233325
