19
Iteration:   615
 C        -3.062914        -1.451818         1.115707
 C        -1.792523        -0.685329         0.965486
 C        -1.776861         0.402986        -0.210613
 C        -1.310496        -0.712573        -1.253436
 C        -0.603125        -1.211989        -0.016173
 C        -0.009691        -2.567568         0.149725
 C         0.313992        -0.028501         0.304111
 O         1.501356         0.023213         0.429331
 O        -0.425707         1.065738         0.345189
 H        -3.067085        -2.283093         1.808176
 H        -3.833762        -0.699000         1.481836
 H        -3.220646        -1.878496         0.110631
 H        -1.617720        -0.113152         1.927857
 H        -2.546635         1.160277        -0.434155
 H        -2.193551        -1.287569        -1.393344
 H        -0.693165        -0.470149        -2.147681
 H        -0.780802        -3.248386         0.291957
 H         0.584098        -2.759418        -0.704962
 H         0.758561        -2.454212         1.020430
