19
Iteration:  1320charge 0 multiplicity 1
 C        -3.216704        -1.561462         0.571935
 C        -1.966734        -0.708344         0.652942
 C        -1.743649         0.420447        -0.343910
 C        -0.954497        -0.514243        -1.301705
 C        -0.594713        -1.224158         0.127496
 C         0.132595        -2.556358         0.327926
 C         0.273175        -0.078444         0.505910
 O         1.406687         0.020974         0.875463
 O        -0.526941         1.091121         0.387337
 H        -4.114019        -1.026856         0.199581
 H        -2.945164        -2.443780        -0.141141
 H        -3.403789        -2.063712         1.546994
 H        -1.734187        -0.408609         1.688017
 H        -2.490814         1.173526        -0.543112
 H        -1.632158        -1.227447        -1.861823
 H        -0.181028        -0.129961        -1.941871
 H         0.125742        -2.693296         1.436300
 H        -0.364272        -3.408225        -0.119703
 H         1.199894        -2.556275         0.074264
