19
Iteration:  3439charge 0 multiplicity 1
 C        -3.173449        -1.752037         0.034502
 C        -2.070016        -0.803229         0.597449
 C        -1.658691         0.380780        -0.287772
 C        -0.725067        -0.421763        -1.249491
 C        -0.487019        -1.196302         0.228055
 C        -0.011495        -2.682340         0.256139
 C         0.270845         0.023332         0.732187
 O         1.439035         0.251088         1.035413
 O        -0.706199         1.045260         0.542020
 H        -2.870426        -2.149856        -0.920261
 H        -3.271881        -2.501795         0.799403
 H        -4.151223        -1.262633        -0.060318
 H        -2.151795        -0.555665         1.621359
 H        -2.402147         1.176231        -0.527751
 H        -1.334976        -0.978178        -1.895970
 H         0.126861         0.203570        -1.595974
 H         1.095181        -2.797726         0.295546
 H        -0.488876        -3.164134         1.122811
 H        -0.328091        -2.950415        -0.760591
