19
Iteration:  1759charge 0 multiplicity 1
 C        -3.124465        -1.700902         0.086782
 C        -2.050122        -0.646697         0.528097
 C        -1.579028         0.444885        -0.406128
 C        -0.854387        -0.659947        -1.220388
 C        -0.530133        -1.175617         0.313202
 C        -0.071184        -2.736973         0.501613
 C         0.241609         0.049215         0.653341
 O         1.281322         0.180110         1.238589
 O        -0.478751         1.147899         0.223697
 H        -3.378813        -2.326293         0.867421
 H        -4.015772        -1.220958        -0.325334
 H        -2.613122        -2.261740        -0.719709
 H        -2.390941        -0.036920         1.379899
 H        -2.116078         1.258841        -0.980572
 H        -1.260226        -1.449630        -1.751672
 H         0.045492        -0.325742        -1.800487
 H        -0.693547        -3.497067         1.076420
 H        -0.105282        -3.146919        -0.484078
 H         0.988329        -2.780857         0.910943
