19
Iteration:  4020charge 0 multiplicity 1
 C        -3.024691        -1.834171         0.400322
 C        -1.840190        -0.864116         0.612055
 C        -1.720274         0.483480        -0.235423
 C        -1.108205        -0.360212        -1.312625
 C        -0.519379        -1.170395        -0.102600
 C         0.270266        -2.457026        -0.095390
 C         0.214764         0.008264         0.627988
 O         1.065164        -0.147000         1.467569
 O        -0.486221         1.244842         0.409464
 H        -3.196913        -2.490375         1.246017
 H        -3.964223        -1.402912         0.103806
 H        -2.719165        -2.448361        -0.438626
 H        -1.929537        -0.633992         1.674907
 H        -2.493107         1.207198        -0.445574
 H        -1.904111        -0.937198        -1.823733
 H        -0.318979         0.064662        -1.880109
 H         1.310193        -2.324812        -0.568037
 H         0.498454        -2.560766         1.027453
 H        -0.132733        -3.370078        -0.607581
