19
Iteration:   571
 C        -3.134909        -1.497522         1.066502
 C        -1.757393        -0.655300         1.096817
 C        -1.769118         0.441995        -0.084339
 C        -1.459459        -0.689882        -1.099480
 C        -0.634246        -1.231634         0.087799
 C         0.069039        -2.653560         0.081479
 C         0.328688        -0.029366         0.239526
 O         1.515986         0.090840         0.569661
 O        -0.359085         1.101456        -0.033657
 H        -2.925826        -2.558831         1.021721
 H        -3.955551        -1.202081         1.810804
 H        -3.500068        -1.252273         0.059096
 H        -1.122815        -0.277577         1.948781
 H        -2.469664         1.246682        -0.232862
 H        -2.287444        -1.360726        -1.217745
 H        -0.783005        -0.406019        -1.933581
 H        -0.279251        -3.137077        -0.767299
 H         1.115804        -2.756969         0.057263
 H        -0.312994        -3.248132         1.026633
