19
Iteration:  2862
 C        -3.073431        -1.723474         0.277989
 C        -2.016280        -0.631104         0.443490
 C        -1.562823         0.427976        -0.653733
 C        -0.739980        -0.681163        -1.318469
 C        -0.434107        -1.107524         0.045090
 C         0.098056        -2.504614         0.446015
 C         0.194705         0.005964         0.728422
 O         0.923839        -0.009255         1.693089
 O        -0.531582         1.157960         0.088099
 H        -3.182799        -2.191923         1.247738
 H        -3.972095        -1.308562        -0.028729
 H        -2.703606        -2.510624        -0.380536
 H        -2.086411        -0.008003         1.407192
 H        -1.860394         1.253422        -1.239676
 H        -1.379796        -1.556668        -1.738101
 H         0.041312        -0.454783        -2.055748
 H        -0.479695        -3.384449         0.090339
 H         1.225588        -2.765487         0.056588
 H         0.201205        -2.541425         1.563370
