19
Iteration:  4063charge 0 multiplicity 1
 C        -2.958759        -1.760940         0.387681
 C        -1.914015        -0.776901         0.628107
 C        -1.765995         0.435848        -0.303627
 C        -0.997392        -0.441344        -1.339714
 C        -0.493458        -1.159328        -0.122591
 C         0.234789        -2.476239        -0.169537
 C         0.229966        -0.036926         0.660536
 O         1.061942        -0.020766         1.531928
 O        -0.522813         1.130403         0.475717
 H        -2.676478        -2.637233         0.972933
 H        -3.788749        -1.509096         1.081707
 H        -3.407964        -2.040381        -0.556679
 H        -1.835669        -0.543319         1.735794
 H        -2.587941         1.101749        -0.518297
 H        -1.726500        -0.922590        -2.001160
 H        -0.282377         0.101839        -1.893404
 H         0.936604        -2.497085        -1.073464
 H         0.839357        -2.579027         0.787474
 H        -0.437277        -3.300706        -0.490866
