19
Iteration:  1420charge 0 multiplicity 1
 C        -3.079784        -1.732852         0.567375
 C        -1.927439        -0.684189         0.646476
 C        -1.612124         0.476688        -0.411424
 C        -1.009249        -0.558682        -1.373052
 C        -0.614429        -1.194791         0.028781
 C         0.020916        -2.551393         0.387984
 C         0.289455        -0.003315         0.527402
 O         1.296845        -0.025741         1.208442
 O        -0.483733         1.179941         0.213977
 H        -3.163646        -2.324712         1.493892
 H        -4.065349        -1.209511         0.264235
 H        -2.916998        -2.493648        -0.224292
 H        -1.826233        -0.209098         1.620924
 H        -2.316476         1.287927        -0.723554
 H        -1.881907        -1.183239        -1.640064
 H        -0.363807        -0.321257        -2.222726
 H         0.075272        -3.127710        -0.558225
 H         0.971647        -2.414402         0.758753
 H        -0.637524        -3.147845         1.025481
