19
Iteration:  4830charge 0 multiplicity 1
 C        -3.117125        -1.801802         0.088251
 C        -2.056569        -0.856431         0.615447
 C        -1.718226         0.456031        -0.185160
 C        -0.990559        -0.336995        -1.168377
 C        -0.442121        -1.098321        -0.098524
 C         0.220997        -2.459374         0.091891
 C         0.257294        -0.042106         0.663802
 O         1.299106         0.027588         1.289048
 O        -0.591944         1.049430         0.532150
 H        -2.987696        -2.672583         0.730711
 H        -4.157055        -1.742535         0.212112
 H        -3.045636        -2.156765        -0.899341
 H        -2.210910        -0.729070         1.643119
 H        -2.520280         1.169594        -0.425997
 H        -1.584419        -0.916602        -1.901298
 H        -0.241756         0.237106        -1.791044
 H        -0.248260        -3.079376        -0.690231
 H         1.289803        -2.389187        -0.153079
 H         0.234089        -2.944174         1.103319
