19
Iteration:   548
 C        -2.914756        -1.471473         1.062861
 C        -1.786739        -0.590624         0.912950
 C        -1.833672         0.388258        -0.140288
 C        -1.512807        -0.706541        -1.134209
 C        -0.562047        -1.167897         0.074601
 C        -0.039812        -2.565960         0.130611
 C         0.395352        -0.030108         0.236206
 O         1.550713        -0.027503         0.608856
 O        -0.459326         1.071249         0.050645
 H        -2.634301        -2.541886         1.090144
 H        -3.257656        -1.175606         2.075668
 H        -3.771183        -1.324831         0.401549
 H        -1.387909        -0.196107         1.894297
 H        -2.615590         1.112392        -0.137092
 H        -2.452018        -1.254293        -1.146622
 H        -0.985557        -0.486556        -2.020484
 H         0.282491        -2.871779        -0.833267
 H         0.837841        -2.582611         0.722761
 H        -0.723364        -3.310483         0.691793
