19
Iteration:  2614
 C        -3.345160        -1.569293         0.265394
 C        -1.959828        -0.788731         0.443454
 C        -1.451018         0.399360        -0.600506
 C        -0.645373        -0.720152        -1.438980
 C        -0.526081        -1.231524         0.126252
 C         0.224587        -2.539577         0.458314
 C         0.194965         0.043853         0.739872
 O         0.924034         0.116307         1.662259
 O        -0.511643         1.144679         0.112094
 H        -3.416124        -2.072333        -0.707511
 H        -3.599529        -2.295414         1.068406
 H        -4.045386        -0.721908         0.304500
 H        -1.851425        -0.526958         1.473168
 H        -2.068008         1.178007        -1.038485
 H        -1.518472        -1.333080        -1.873921
 H         0.257686        -0.582656        -1.987331
 H        -0.131857        -3.352533        -0.131156
 H         1.238407        -2.444360         0.128020
 H         0.309185        -2.810160         1.497414
