19
Iteration:  2177charge 0 multiplicity 1
 C        -3.148326        -1.582097         0.026646
 C        -2.035757        -0.692179         0.432504
 C        -1.574466         0.348574        -0.611067
 C        -0.811879        -0.668727        -1.304806
 C        -0.508854        -1.198668         0.094749
 C         0.114619        -2.510153         0.577375
 C         0.223611         0.028355         0.770591
 O         1.051674         0.086840         1.643412
 O        -0.428875         1.060413         0.157826
 H        -2.845537        -2.220583        -0.842672
 H        -3.313249        -2.394180         0.845496
 H        -4.123997        -1.001366        -0.125357
 H        -2.203009        -0.093295         1.354151
 H        -2.225306         1.076428        -1.266367
 H        -1.583236        -1.242462        -1.750029
 H        -0.038808        -0.422009        -2.047899
 H        -0.103280        -3.426802         0.108824
 H         1.239108        -2.415605         0.518961
 H        -0.189947        -2.579229         1.604257
