19
Iteration:  2420charge 0 multiplicity 1
 C        -3.109648        -1.600398         0.080784
 C        -1.964377        -0.695466         0.466955
 C        -1.575477         0.403020        -0.570439
 C        -0.736797        -0.746098        -1.320216
 C        -0.418535        -1.145696         0.138054
 C        -0.022087        -2.571714         0.482667
 C         0.232223         0.054118         0.758569
 O         1.043347         0.191299         1.642917
 O        -0.508825         1.044044         0.115972
 H        -2.877842        -1.960307        -0.923313
 H        -3.359017        -2.373578         0.855607
 H        -4.030990        -1.036001         0.002261
 H        -2.091780        -0.504221         1.568215
 H        -2.343933         1.035889        -0.913751
 H        -1.166175        -1.578750        -1.948888
 H         0.034244        -0.454134        -1.965193
 H        -0.330038        -3.267640        -0.352226
 H         0.996391        -2.703005         0.773111
 H        -0.560825        -2.949885         1.375401
