19
Iteration:  4712charge 0 multiplicity 1
 C        -2.986168        -1.780253         0.147251
 C        -1.890722        -0.876470         0.593922
 C        -1.716517         0.419875        -0.222799
 C        -0.957470        -0.341766        -1.303412
 C        -0.524742        -1.146536        -0.065454
 C         0.121443        -2.522277        -0.037964
 C         0.243633         0.058558         0.778478
 O         1.249739        -0.017624         1.420368
 O        -0.656929         1.099589         0.492531
 H        -2.793984        -2.795944         0.563401
 H        -3.970487        -1.488339         0.624134
 H        -3.073765        -1.850987        -0.929178
 H        -2.234333        -0.587177         1.620420
 H        -2.494230         1.205547        -0.260021
 H        -1.676481        -0.826025        -1.970619
 H        -0.216364         0.103199        -1.975407
 H        -0.518721        -3.447565        -0.047266
 H         0.942030        -2.572738        -0.753583
 H         0.761565        -2.447830         0.898642
