19
Iteration:  3270
 C        -3.106330        -1.732637         0.115550
 C        -2.001074        -0.814850         0.539789
 C        -1.648318         0.385233        -0.384865
 C        -0.843282        -0.409168        -1.317573
 C        -0.502017        -1.181934         0.113868
 C         0.082780        -2.543886         0.304359
 C         0.189779         0.003983         0.707751
 O         1.193241         0.114534         1.359936
 O        -0.518724         1.064056         0.388038
 H        -3.873051        -1.934145         0.861855
 H        -3.499528        -1.300652        -0.855902
 H        -2.742507        -2.727962        -0.059440
 H        -2.051779        -0.494282         1.615093
 H        -2.386876         1.132186        -0.538068
 H        -1.364588        -1.048714        -2.034963
 H         0.132792        -0.016987        -1.724184
 H         0.281379        -2.976157        -0.680425
 H         0.974053        -2.397172         0.810486
 H        -0.636510        -3.233848         0.743536
