19
Iteration:  4537charge 0 multiplicity 1
 C        -3.072332        -1.879243         0.393626
 C        -1.943648        -0.855341         0.510806
 C        -1.784181         0.421840        -0.299879
 C        -0.920698        -0.311921        -1.379659
 C        -0.528775        -1.122971        -0.082602
 C         0.256282        -2.394961        -0.043189
 C         0.165218         0.043400         0.670008
 O         1.096831        -0.123603         1.496642
 O        -0.449247         1.129632         0.479593
 H        -2.488067        -2.826156         0.577824
 H        -4.043842        -1.665251         0.954843
 H        -3.479457        -2.046977        -0.659422
 H        -2.045822        -0.415258         1.596155
 H        -2.398538         1.316331        -0.393071
 H        -1.566864        -0.965774        -1.908991
 H        -0.112483         0.206047        -1.853863
 H        -0.189387        -3.089243        -0.707756
 H         1.274250        -2.270762        -0.365933
 H         0.307219        -2.813976         0.966164
