19
Iteration:  4079
 C        -3.065160        -1.808674         0.414114
 C        -1.877302        -0.853552         0.619486
 C        -1.670177         0.502645        -0.297689
 C        -0.964975        -0.386533        -1.336411
 C        -0.435264        -1.130020        -0.006627
 C         0.188795        -2.569243        -0.196245
 C         0.208143         0.033137         0.755686
 O         1.188393         0.032216         1.456592
 O        -0.697344         1.093677         0.450950
 H        -2.833877        -2.881957         0.525649
 H        -3.985604        -1.581352         0.962645
 H        -3.243560        -1.624142        -0.653144
 H        -1.693270        -0.481187         1.634311
 H        -2.361374         1.350478        -0.562139
 H        -1.484292        -1.114294        -1.979136
 H        -0.166852         0.007826        -2.092531
 H         0.831445        -2.560092        -1.042344
 H         0.754807        -2.914506         0.648116
 H        -0.604169        -3.327418        -0.328175
