19
Iteration:  3994charge 0 multiplicity 1
 C        -3.019591        -1.766615         0.302640
 C        -1.918608        -0.823255         0.657172
 C        -1.776647         0.440990        -0.259310
 C        -1.067149        -0.387796        -1.324889
 C        -0.425911        -1.125600        -0.045438
 C         0.171699        -2.452844        -0.092511
 C         0.275514        -0.076403         0.724474
 O         1.287351         0.052869         1.367160
 O        -0.640231         1.033279         0.507942
 H        -3.469668        -2.314692         1.164019
 H        -3.923329        -1.199825        -0.132268
 H        -2.745369        -2.508340        -0.475063
 H        -2.122464        -0.545205         1.718881
 H        -2.473590         1.238834        -0.567066
 H        -1.642556        -1.073011        -1.904205
 H        -0.198789         0.054453        -1.843917
 H         1.157761        -2.485669        -0.597667
 H         0.288659        -2.824163         0.900281
 H        -0.409910        -3.084992        -0.751839
