19
Iteration:  2063
 C        -2.949160        -1.728613        -0.071594
 C        -2.109285        -0.620284         0.449596
 C        -1.588479         0.475516        -0.563412
 C        -0.759968        -0.609772        -1.256758
 C        -0.656255        -1.192223         0.204310
 C         0.025580        -2.506342         0.651315
 C         0.170244         0.042147         0.756076
 O         1.123432        -0.007947         1.479939
 O        -0.419307         1.079445         0.176619
 H        -2.597123        -2.233521        -0.949871
 H        -2.979094        -2.502729         0.667908
 H        -4.038209        -1.639426        -0.192533
 H        -2.546164        -0.205842         1.381319
 H        -2.142570         1.232589        -1.017152
 H        -1.131796        -1.284959        -2.110540
 H         0.094196         0.001140        -1.641923
 H        -0.839957        -3.298935         0.691318
 H         0.743116        -2.808932        -0.083300
 H         0.264099        -2.388540         1.763617
