19
Iteration:  1330
 C        -3.215913        -1.549912         0.546668
 C        -2.023530        -0.690533         0.702029
 C        -1.755228         0.410942        -0.344758
 C        -0.938159        -0.579344        -1.291341
 C        -0.541624        -1.218627         0.117321
 C         0.168972        -2.570124         0.337600
 C         0.273698         0.019827         0.518053
 O         1.443390        -0.002526         0.890030
 O        -0.541127         1.056075         0.380989
 H        -4.162917        -0.934948         0.455836
 H        -3.239799        -2.277384        -0.396046
 H        -3.458944        -2.129406         1.477207
 H        -2.087927        -0.165970         1.722388
 H        -2.528222         1.071939        -0.701249
 H        -1.551267        -1.224189        -1.978687
 H        -0.230665         0.007225        -1.843890
 H         0.543049        -2.828845         1.346571
 H        -0.563142        -3.360961         0.036565
 H         0.920970        -2.546506        -0.447585
