19
Iteration:    23charge 0 multiplicity 1
 C        -2.748502        -1.573422         1.669084
 C        -1.715834        -0.619820         1.056495
 C        -1.764582         0.564571        -0.030846
 C        -1.710675        -0.551617        -1.121392
 C        -0.699530        -1.208687        -0.027722
 C        -0.132262        -2.647874        -0.090079
 C         0.384588        -0.066099         0.085594
 O         1.552954        -0.063937        -0.007709
 O        -0.374053         1.106057         0.304562
 H        -3.026853        -1.401201         2.694925
 H        -3.666421        -1.749977         1.148298
 H        -2.239592        -2.554684         1.650909
 H        -1.256855        -0.152789         1.917794
 H        -2.465010         1.398089        -0.074852
 H        -2.615401        -1.165165        -1.109677
 H        -1.369274        -0.422866        -2.148525
 H         0.875360        -2.616143         0.276055
 H        -0.675320        -3.395233         0.522308
 H        -0.080325        -3.039265        -1.129400
