19
Iteration:  2583
 C        -3.138773        -1.556955         0.167293
 C        -2.017896        -0.606162         0.394324
 C        -1.580413         0.359602        -0.552990
 C        -0.700110        -0.684825        -1.406565
 C        -0.502093        -1.196321         0.040859
 C         0.155169        -2.440780         0.554100
 C         0.191958        -0.023391         0.732484
 O         1.019147         0.025678         1.603432
 O        -0.555475         1.036681         0.195345
 H        -2.832560        -2.331685        -0.474003
 H        -3.387985        -1.967752         1.141102
 H        -4.051807        -1.233785        -0.196311
 H        -2.081735        -0.236694         1.444833
 H        -2.249364         1.106340        -1.031304
 H        -1.283181        -1.420308        -2.074693
 H         0.177762        -0.429573        -1.979691
 H        -0.476590        -3.418070         0.468346
 H         1.148713        -2.611458         0.152104
 H         0.401168        -2.330742         1.661151
