19
Iteration:   179
 C        -2.876181        -1.595178         1.360187
 C        -1.634431        -0.622409         1.088065
 C        -1.707419         0.462707         0.035973
 C        -1.690416        -0.566369        -1.077451
 C        -0.604605        -1.192159        -0.047132
 C        -0.143495        -2.633321         0.064955
 C         0.324555        -0.004182         0.062924
 O         1.530617        -0.050683         0.121172
 O        -0.381704         1.106654         0.228402
 H        -2.420843        -2.600963         1.492992
 H        -3.418822        -1.245281         2.215215
 H        -3.432784        -1.583619         0.424449
 H        -1.170407        -0.263091         1.992481
 H        -2.423953         1.288095         0.088548
 H        -2.712664        -1.031190        -1.016379
 H        -1.268025        -0.290238        -2.066478
 H        -0.554659        -3.022108         0.948637
 H        -0.306220        -3.300411        -0.781006
 H         1.011612        -2.698744         0.251356
