19
Iteration:  2900
 C        -3.174723        -1.631915         0.087904
 C        -1.965198        -0.793579         0.498562
 C        -1.521882         0.374569        -0.497847
 C        -0.764410        -0.643900        -1.298759
 C        -0.472072        -1.254134         0.149172
 C         0.065046        -2.681206         0.405185
 C         0.216384         0.075092         0.747673
 O         1.074779         0.314153         1.569585
 O        -0.526166         1.114441         0.162494
 H        -4.055334        -1.525252         0.773233
 H        -3.553339        -1.249975        -0.954030
 H        -3.017382        -2.707889        -0.092694
 H        -2.072240        -0.574735         1.529936
 H        -2.348919         1.025396        -0.941998
 H        -1.197802        -1.444291        -1.822734
 H         0.133803        -0.280529        -1.833232
 H        -0.741553        -3.422179         0.199425
 H         0.944906        -2.900522        -0.116586
 H         0.218269        -2.766345         1.493922
