19
Iteration:  3137
 C        -3.011566        -1.768380         0.073841
 C        -1.971622        -0.757899         0.567009
 C        -1.658482         0.465901        -0.444064
 C        -0.902527        -0.479383        -1.246093
 C        -0.513435        -1.216365         0.146969
 C         0.093042        -2.544499         0.267333
 C         0.223076         0.022004         0.741838
 O         1.110320         0.080502         1.566148
 O        -0.479124         1.094898         0.172835
 H        -3.200794        -2.599789         0.796558
 H        -3.991763        -1.157788        -0.071888
 H        -2.771487        -2.287129        -0.903190
 H        -2.118882        -0.432850         1.658621
 H        -2.422593         1.324801        -0.659024
 H        -1.561699        -1.119650        -1.883493
 H        -0.096455        -0.039854        -1.923550
 H        -0.698492        -3.332432         0.423553
 H         0.606718        -2.827822        -0.625225
 H         0.740437        -2.648973         1.135252
