19
Iteration:  1510charge 0 multiplicity 1
 C        -3.162991        -1.507050         0.227881
 C        -1.937858        -0.749056         0.685253
 C        -1.683956         0.333675        -0.294816
 C        -1.075099        -0.649849        -1.292321
 C        -0.561926        -1.242469         0.117979
 C         0.096885        -2.602094         0.347948
 C         0.306073        -0.062413         0.615902
 O         1.341871         0.245882         1.182466
 O        -0.490534         1.020715         0.258928
 H        -3.013216        -2.570716        -0.168258
 H        -3.932026        -1.340629         0.939660
 H        -3.646123        -0.795004        -0.486523
 H        -1.792577        -0.429022         1.702206
 H        -2.289294         1.210580        -0.643670
 H        -1.697193        -1.338122        -1.767797
 H        -0.318498        -0.109648        -1.961912
 H        -0.012190        -2.808999         1.416728
 H        -0.181065        -3.489898        -0.097502
 H         1.177794        -2.506863         0.151751
