19
Iteration:  2280
 C        -3.242945        -1.553803        -0.076700
 C        -2.085869        -0.716161         0.409423
 C        -1.519821         0.317847        -0.576197
 C        -0.546672        -0.701905        -1.225347
 C        -0.548162        -1.186381         0.275888
 C         0.044980        -2.597611         0.658408
 C         0.184009         0.075902         0.739490
 O         1.248659         0.150154         1.347442
 O        -0.633392         1.099133         0.297705
 H        -3.220140        -1.855167        -1.156856
 H        -3.405146        -2.480262         0.581202
 H        -4.225458        -1.053994         0.004043
 H        -2.253180        -0.251583         1.386929
 H        -2.293150         0.845148        -1.021645
 H        -1.096079        -1.339196        -1.986463
 H         0.308775        -0.329101        -1.752695
 H        -0.689213        -3.395704         0.302417
 H         0.959515        -2.704037         0.161278
 H         0.329774        -2.735555         1.749553
