19
Iteration:  2969charge 0 multiplicity 1
 C        -3.141138        -1.773243        -0.052213
 C        -2.094479        -0.747008         0.402701
 C        -1.614407         0.442526        -0.466361
 C        -0.670790        -0.504259        -1.316282
 C        -0.541157        -1.174498         0.236734
 C         0.098843        -2.475961         0.667911
 C         0.235913        -0.007251         0.692930
 O         1.302012         0.005964         1.193767
 O        -0.684474         1.110869         0.443487
 H        -3.969717        -1.476440        -0.831251
 H        -2.586347        -2.668979        -0.389410
 H        -3.725934        -2.202137         0.855796
 H        -2.345011        -0.334698         1.410108
 H        -2.240025         1.217365        -0.762407
 H        -1.277950        -1.046845        -2.116861
 H         0.119848         0.109804        -1.859100
 H        -0.404157        -3.320317         0.338581
 H         1.170136        -2.411239         0.510196
 H        -0.209469        -2.522225         1.708626
