19
Iteration:   296charge 0 multiplicity 1
 C        -2.968466        -1.484202         1.432356
 C        -1.750240        -0.730192         1.036247
 C        -1.764075         0.457661         0.015065
 C        -1.541738        -0.554013        -1.132894
 C        -0.591865        -1.268538         0.039750
 C        -0.012698        -2.534867        -0.011787
 C         0.306733        -0.067268         0.169048
 O         1.512003        -0.048184         0.294430
 O        -0.374648         1.088901         0.024790
 H        -3.665105        -1.747266         0.605108
 H        -2.616399        -2.313230         1.965557
 H        -3.417214        -0.726347         2.088501
 H        -1.258064        -0.537823         2.017643
 H        -2.637606         1.178842        -0.129969
 H        -2.400702        -1.186490        -1.325022
 H        -1.002945        -0.290755        -1.980888
 H         0.756030        -2.513668        -0.721330
 H         0.427240        -2.739537         0.950281
 H        -0.813419        -3.265597        -0.156369
