19
Iteration:  2395charge 0 multiplicity 1
 C        -3.143817        -1.672906         0.295629
 C        -2.007731        -0.671494         0.376755
 C        -1.407674         0.362336        -0.662215
 C        -0.585915        -0.641948        -1.348553
 C        -0.453487        -1.253228         0.072418
 C        -0.113178        -2.704665         0.398067
 C         0.176128         0.011882         0.819239
 O         0.974788         0.301292         1.640145
 O        -0.490094         1.134160         0.190299
 H        -3.138905        -2.386357        -0.501202
 H        -3.092667        -2.095905         1.239874
 H        -4.092963        -1.166013         0.281835
 H        -2.179157        -0.285436         1.392467
 H        -2.170847         0.943971        -1.269657
 H        -1.097449        -1.264702        -2.060983
 H         0.168225        -0.199717        -2.080729
 H        -0.695574        -3.295266        -0.302376
 H         1.056239        -2.951790         0.247935
 H        -0.399255        -3.075794         1.401509
