19
Iteration:  2338
 C        -3.113678        -1.652377         0.065170
 C        -2.038636        -0.682976         0.444062
 C        -1.545045         0.480852        -0.668133
 C        -0.770924        -0.702361        -1.310539
 C        -0.521649        -1.181918         0.132057
 C         0.112230        -2.558735         0.617092
 C         0.193637         0.032286         0.715665
 O         1.004436         0.082082         1.623945
 O        -0.434252         1.089962         0.157767
 H        -3.034736        -2.033141        -0.930726
 H        -3.173900        -2.532549         0.649476
 H        -4.031871        -1.052761         0.115375
 H        -2.271808        -0.318039         1.460235
 H        -2.249199         1.262303        -1.138342
 H        -1.461311        -1.361307        -1.802929
 H         0.165907        -0.333107        -1.860356
 H        -0.605404        -3.401693         0.639696
 H         0.869129        -3.002750        -0.162908
 H         0.562052        -2.454751         1.627995
