19
Iteration:  4359
 C        -3.080014        -1.768232         0.076835
 C        -1.928156        -0.882903         0.638574
 C        -1.705324         0.443216        -0.163557
 C        -0.954085        -0.410098        -1.167322
 C        -0.438282        -1.169529         0.068911
 C         0.107754        -2.582831        -0.062258
 C         0.282017         0.010434         0.666664
 O         1.308565         0.163856         1.283670
 O        -0.688514         1.096694         0.557674
 H        -2.929788        -2.842866         0.185327
 H        -4.064746        -1.551698         0.457827
 H        -3.249158        -1.495324        -0.997366
 H        -2.088948        -0.851210         1.736889
 H        -2.412676         1.063923        -0.750060
 H        -1.537969        -1.105699        -1.748862
 H        -0.271134        -0.019318        -1.873225
 H        -0.080166        -3.000771        -0.972031
 H         1.142647        -2.459450         0.153733
 H        -0.149122        -3.241677         0.714281
