19
Iteration:  3556charge 0 multiplicity 1
 C        -3.204491        -1.674917         0.376176
 C        -1.941860        -0.776454         0.548674
 C        -1.639750         0.370584        -0.355330
 C        -0.822311        -0.481999        -1.352141
 C        -0.388114        -1.198286        -0.044965
 C         0.195468        -2.599000        -0.118547
 C         0.235779         0.026098         0.744175
 O         1.110477         0.137724         1.572422
 O        -0.613945         1.087634         0.447855
 H        -3.422400        -2.184341         1.377246
 H        -4.071069        -1.218077        -0.133540
 H        -2.839877        -2.540906        -0.304742
 H        -1.966414        -0.411806         1.641206
 H        -2.450096         1.089889        -0.504039
 H        -1.620065        -1.186389        -1.899951
 H        -0.238038         0.145476        -2.098334
 H         0.709961        -2.638544        -1.139737
 H         1.008598        -2.929638         0.540006
 H        -0.588088        -3.380597        -0.315997
