19
Iteration:  2156
 C        -3.292407        -1.573846         0.145701
 C        -2.024889        -0.656376         0.377661
 C        -1.489848         0.375540        -0.616526
 C        -0.554655        -0.797477        -1.313587
 C        -0.551863        -1.181640         0.239784
 C         0.200910        -2.492634         0.467305
 C         0.121942        -0.009812         0.777774
 O         0.996632         0.051741         1.575610
 O        -0.522123         1.156542         0.169159
 H        -3.338956        -2.241115        -0.761488
 H        -3.544328        -2.356596         1.006495
 H        -4.189997        -0.855690         0.122791
 H        -1.964285        -0.175276         1.372556
 H        -2.157350         1.098645        -1.273078
 H        -0.976875        -1.545394        -1.905146
 H         0.377913        -0.424433        -1.772133
 H        -0.398903        -3.225974         0.054330
 H         1.162912        -2.414022        -0.107864
 H         0.206193        -2.816930         1.461546
