19
Iteration:   499
 C        -2.953895        -1.537416         1.355459
 C        -1.843679        -0.649173         0.871473
 C        -1.868181         0.458323        -0.203114
 C        -1.389526        -0.587741        -1.309547
 C        -0.595956        -1.223916         0.058633
 C        -0.101246        -2.617087         0.185616
 C         0.353348        -0.058484         0.269946
 O         1.576247         0.012198         0.485626
 O        -0.412533         1.068181         0.087354
 H        -2.538420        -2.541392         1.424031
 H        -3.319096        -1.216993         2.348500
 H        -3.829559        -1.605992         0.688866
 H        -1.432580        -0.255906         1.821558
 H        -2.569293         1.332608        -0.301094
 H        -2.050228        -1.334941        -1.728050
 H        -0.736858         0.072873        -1.933934
 H         1.014982        -2.326427         0.242334
 H        -0.369360        -3.208862         1.136216
 H        -0.301218        -3.280396        -0.607905
