19
Iteration:  3459charge 0 multiplicity 1
 C        -3.039460        -1.783002         0.030144
 C        -1.972906        -0.815318         0.520837
 C        -1.730625         0.449894        -0.260576
 C        -0.870823        -0.492349        -1.183581
 C        -0.533290        -1.182657         0.114187
 C        -0.023761        -2.643943         0.275065
 C         0.245811         0.019779         0.705732
 O         1.393519         0.195608         1.065246
 O        -0.618631         1.126208         0.604070
 H        -2.688622        -2.527788        -0.722904
 H        -3.669141        -2.227977         0.793935
 H        -3.626956        -1.079414        -0.622420
 H        -2.120431        -0.686998         1.615231
 H        -2.432213         1.203186        -0.659411
 H        -1.553756        -1.116165        -1.841545
 H        -0.005914        -0.015237        -1.624679
 H         1.053231        -2.717509         0.179952
 H        -0.164791        -2.914079         1.258522
 H        -0.400216        -3.350133        -0.454943
