19
Iteration:  1440charge 0 multiplicity 1
 C        -3.066128        -1.702738         0.583321
 C        -2.058378        -0.545184         0.580283
 C        -1.672545         0.491467        -0.476767
 C        -0.999565        -0.600366        -1.307450
 C        -0.520793        -1.189030         0.082308
 C         0.062399        -2.543167         0.297272
 C         0.234970        -0.022320         0.616744
 O         1.311376        -0.021381         1.186551
 O        -0.469606         1.052453         0.232011
 H        -2.524390        -2.403139         1.154006
 H        -4.135611        -1.393050         0.841843
 H        -3.208140        -2.152450        -0.395271
 H        -2.211256        -0.087455         1.587021
 H        -2.314679         1.276771        -0.860010
 H        -1.572250        -1.351050        -1.928849
 H        -0.255312        -0.080233        -1.811585
 H        -0.375292        -3.365104        -0.291733
 H         1.134168        -2.479525         0.200534
 H        -0.075853        -2.788655         1.333837
