19
Iteration:  2448
 C        -3.147646        -1.608154        -0.084666
 C        -2.067766        -0.714575         0.466821
 C        -1.551591         0.467586        -0.554435
 C        -0.797847        -0.723512        -1.266345
 C        -0.616949        -1.249553         0.231982
 C         0.163425        -2.577694         0.679531
 C         0.178792         0.073021         0.704466
 O         1.119418         0.064436         1.445875
 O        -0.459517         1.140244         0.196968
 H        -2.937040        -1.748966        -1.151489
 H        -3.241279        -2.525390         0.463370
 H        -4.168402        -1.145233         0.046947
 H        -2.224498        -0.475182         1.517386
 H        -2.354795         1.175616        -0.963846
 H        -1.377370        -1.298032        -1.981195
 H         0.209326        -0.428696        -1.807128
 H         0.178256        -3.320941        -0.085626
 H         1.251407        -2.207074         0.940477
 H        -0.137698        -2.965805         1.654447
