19
Iteration:  4630charge 0 multiplicity 1
 C        -3.164285        -1.755147         0.050707
 C        -2.025217        -0.891409         0.575450
 C        -1.695858         0.455622        -0.190192
 C        -0.784672        -0.396830        -1.173914
 C        -0.581240        -1.243554         0.055764
 C         0.172458        -2.602740         0.058931
 C         0.245446        -0.002789         0.749817
 O         1.428220         0.197860         1.061878
 O        -0.765263         1.115748         0.711108
 H        -3.235330        -2.635277         0.655019
 H        -4.137283        -1.306296        -0.109043
 H        -2.905727        -2.266461        -0.893752
 H        -2.029582        -0.746572         1.617970
 H        -2.498323         1.160394        -0.450212
 H        -1.212339        -1.008034        -2.049762
 H         0.086001         0.247159        -1.428368
 H        -0.252705        -3.197067        -0.798381
 H         1.217414        -2.440103        -0.306286
 H         0.043246        -3.237628         0.935606
