19
Iteration:  4307charge 0 multiplicity 1
 C        -3.117045        -1.858107         0.383669
 C        -1.906661        -0.772150         0.565667
 C        -1.711144         0.492554        -0.195531
 C        -0.963570        -0.378307        -1.385663
 C        -0.441784        -1.117620        -0.143808
 C         0.312304        -2.452362        -0.012208
 C         0.188653         0.027004         0.675853
 O         1.082947        -0.081300         1.433339
 O        -0.552439         1.102118         0.451448
 H        -2.549301        -2.835560         0.394148
 H        -3.790465        -1.763334         1.240788
 H        -3.780731        -1.891216        -0.589783
 H        -1.901877        -0.622157         1.650489
 H        -2.502574         1.210407        -0.462704
 H        -1.725307        -0.902088        -1.954654
 H        -0.125592         0.002367        -1.970964
 H         0.488019        -2.741028        -1.090183
 H         1.228347        -2.542764         0.657892
 H        -0.475906        -3.199547         0.366059
