19
Iteration:  1101charge 0 multiplicity 1
 C        -3.200896        -1.592042         0.794999
 C        -1.910475        -0.808022         0.850428
 C        -1.748698         0.388109        -0.249740
 C        -1.038461        -0.506481        -1.361966
 C        -0.520404        -1.169262         0.007138
 C        -0.068553        -2.565333         0.276420
 C         0.350912         0.001674         0.431539
 O         1.519824         0.041549         0.715186
 O        -0.516569         1.085116         0.364545
 H        -3.179050        -2.680271         0.650125
 H        -3.743371        -1.569943         1.769776
 H        -3.875050        -1.195252         0.066034
 H        -1.725205        -0.433937         1.870395
 H        -2.485976         1.244714        -0.394014
 H        -1.700828        -1.095113        -1.948833
 H        -0.282595        -0.041752        -2.079553
 H        -0.690408        -3.206110         0.934207
 H         0.006276        -3.180589        -0.729584
 H         0.962913        -2.514523         0.623651
