19
Iteration:   391
 C        -2.948214        -1.498749         1.244637
 C        -1.768720        -0.619936         1.026819
 C        -1.792147         0.515660        -0.150164
 C        -1.437213        -0.661423        -1.180080
 C        -0.600579        -1.197999         0.043301
 C         0.003238        -2.561352         0.183258
 C         0.344082        -0.093463         0.215197
 O         1.557874        -0.050749         0.218540
 O        -0.509891         1.061596         0.271127
 H        -3.481948        -1.086612         2.112029
 H        -3.628646        -1.486997         0.375489
 H        -2.677782        -2.538749         1.512149
 H        -1.391547        -0.153939         1.952077
 H        -2.574850         1.317787        -0.317441
 H        -2.376841        -1.264548        -1.295140
 H        -0.914983        -0.396429        -2.160342
 H        -0.842213        -3.351120         0.345598
 H         0.427736        -2.874069        -0.836854
 H         0.788261        -2.597579         0.884353
