19
Iteration:  2544charge 0 multiplicity 1
 C        -3.087657        -1.759221        -0.087690
 C        -2.098438        -0.708553         0.418161
 C        -1.598941         0.413650        -0.477745
 C        -0.707324        -0.721435        -1.232019
 C        -0.508679        -1.168964         0.251499
 C        -0.125931        -2.599407         0.562370
 C         0.268266         0.087949         0.816341
 O         1.239850         0.192279         1.460408
 O        -0.488109         1.179519         0.134362
 H        -2.629405        -2.534724        -0.787939
 H        -3.116594        -2.425949         0.833596
 H        -4.129973        -1.286634        -0.350813
 H        -2.518857        -0.362335         1.407561
 H        -2.375215         1.236612        -0.811813
 H        -1.376659        -1.401701        -1.618204
 H         0.216039        -0.412461        -1.826507
 H        -0.967765        -3.201910         0.215445
 H         0.625964        -3.021307        -0.123801
 H         0.240430        -2.715130         1.582312
