19
Iteration:  2763charge 0 multiplicity 1
 C        -3.181128        -1.635664        -0.183953
 C        -2.187642        -0.678412         0.512865
 C        -1.623488         0.294423        -0.493358
 C        -0.686257        -0.702464        -1.213768
 C        -0.498029        -1.170195         0.362664
 C         0.050991        -2.629672         0.634914
 C         0.237037         0.070789         0.715203
 O         1.260986         0.302712         1.291370
 O        -0.542193         1.023973         0.292554
 H        -2.652709        -2.448960        -0.714454
 H        -3.827402        -2.074076         0.489323
 H        -3.759519        -1.082570        -0.929455
 H        -2.463556        -0.360359         1.548725
 H        -2.245258         1.021543        -0.890118
 H        -1.103236        -1.369355        -1.947369
 H         0.083074        -0.113566        -1.717031
 H        -0.509044        -3.380442         0.080292
 H         1.136004        -2.597827         0.122840
 H         0.187849        -3.060875         1.652453
