19
Iteration:  3194charge 0 multiplicity 1
 C        -3.224389        -1.706791        -0.027355
 C        -2.042998        -0.823837         0.501219
 C        -1.647576         0.377424        -0.355113
 C        -0.613424        -0.486153        -1.255839
 C        -0.497675        -1.216223         0.154408
 C         0.067357        -2.598180         0.373842
 C         0.184540         0.034947         0.754096
 O         1.322651         0.189314         1.139719
 O        -0.671259         1.068886         0.555472
 H        -3.898700        -1.931421         0.807031
 H        -3.906225        -1.210171        -0.806057
 H        -2.915593        -2.669555        -0.386512
 H        -2.121171        -0.472970         1.558411
 H        -2.320410         1.166067        -0.646381
 H        -1.061864        -1.050679        -2.025854
 H         0.205369         0.126419        -1.705899
 H        -0.626233        -3.341545        -0.146587
 H         1.096188        -2.658836         0.021864
 H         0.102092        -2.722575         1.514845
