19
Iteration:  4852
 C        -3.044653        -1.833249         0.041505
 C        -2.007835        -0.910862         0.565792
 C        -1.678210         0.408393        -0.194237
 C        -0.860400        -0.333461        -1.299473
 C        -0.553458        -1.200056         0.197330
 C         0.119453        -2.511765         0.069130
 C         0.214696        -0.053244         0.762215
 O         1.362237         0.101826         1.105591
 O        -0.660156         1.153525         0.654146
 H        -3.217056        -2.818565         0.480236
 H        -3.970123        -1.371261         0.282141
 H        -3.163433        -1.841567        -1.007767
 H        -2.234635        -0.582453         1.558107
 H        -2.545200         1.046736        -0.439656
 H        -1.433290        -0.886091        -2.079893
 H        -0.229355         0.409064        -1.859829
 H        -0.530986        -3.165602        -0.534884
 H         1.138548        -2.410946        -0.291330
 H         0.366252        -2.915487         1.088886
