19
Iteration:  3365charge 0 multiplicity 1
 C        -3.088853        -1.736043         0.182802
 C        -1.915488        -0.842679         0.629869
 C        -1.616548         0.506513        -0.286798
 C        -1.048254        -0.535522        -1.346429
 C        -0.522412        -1.156688        -0.022146
 C         0.230254        -2.407371         0.231708
 C         0.220864        -0.000364         0.682448
 O         1.121867        -0.060503         1.502446
 O        -0.496387         1.116189         0.234072
 H        -3.879659        -1.179674        -0.253708
 H        -2.742553        -2.567887        -0.503174
 H        -3.563662        -2.158238         1.045002
 H        -2.026295        -0.515756         1.636669
 H        -2.366989         1.287694        -0.549187
 H        -1.795323        -1.065670        -1.859633
 H        -0.254613        -0.177469        -2.028069
 H         1.335767        -2.303848         0.210643
 H        -0.068742        -2.740040         1.286885
 H        -0.075036        -3.069007        -0.577108
