19
Iteration:  3760charge 0 multiplicity 1
 C        -3.047788        -1.789890         0.245883
 C        -1.916400        -0.839277         0.590013
 C        -1.755536         0.522658        -0.343159
 C        -1.059123        -0.301299        -1.362765
 C        -0.493883        -1.129131        -0.013400
 C         0.263585        -2.454489         0.122249
 C         0.263436        -0.033073         0.673709
 O         1.244882        -0.138077         1.392448
 O        -0.637765         1.090764         0.489564
 H        -3.332948        -1.769278        -0.854383
 H        -2.605293        -2.828324         0.290594
 H        -3.917606        -1.658103         0.956235
 H        -1.933526        -0.575711         1.640377
 H        -2.481772         1.284398        -0.625055
 H        -1.842372        -0.929561        -1.963934
 H        -0.289161         0.118090        -2.029760
 H         1.016249        -2.638725        -0.648922
 H         0.804385        -2.355452         1.096042
 H        -0.500762        -3.261730         0.131409
