19
Iteration:  3962charge 0 multiplicity 1
 C        -3.179102        -1.811027         0.108890
 C        -1.962305        -0.972697         0.579662
 C        -1.660994         0.484822        -0.078235
 C        -0.908505        -0.384848        -1.202995
 C        -0.432578        -1.187290         0.111220
 C         0.092139        -2.624000        -0.034815
 C         0.249179        -0.022998         0.702665
 O         1.374722         0.277164         1.106642
 O        -0.654244         1.101313         0.616904
 H        -3.514044        -2.559591         0.847789
 H        -4.098832        -1.153846        -0.107452
 H        -3.135475        -2.438500        -0.796234
 H        -2.148800        -0.758929         1.682020
 H        -2.410681         1.226990        -0.383518
 H        -1.368794        -0.850018        -2.012811
 H         0.011355        -0.043540        -1.696592
 H         1.085281        -2.607355        -0.654135
 H         0.164855        -3.201890         0.895839
 H        -0.794364        -3.105421        -0.530289
