19
Iteration:  4402
 C        -3.108956        -1.890704         0.002466
 C        -1.970949        -0.907852         0.551679
 C        -1.748219         0.495469        -0.224617
 C        -0.863090        -0.249088        -1.156797
 C        -0.547022        -1.126372         0.023381
 C         0.154540        -2.480649         0.189029
 C         0.274448        -0.026532         0.683784
 O         1.366209         0.063087         1.061562
 O        -0.698884         1.008548         0.711320
 H        -3.180846        -2.741020         0.642945
 H        -4.040781        -1.364261        -0.117946
 H        -2.908162        -2.196184        -1.057150
 H        -1.977499        -0.828713         1.681798
 H        -2.482481         1.347275        -0.325454
 H        -1.554153        -0.723472        -1.909198
 H        -0.111452         0.300205        -1.712664
 H        -0.539644        -3.140658        -0.289327
 H         1.141517        -2.572044        -0.274168
 H         0.372098        -2.662459         1.222424
