19
Iteration:  2237charge 0 multiplicity 1
 C        -3.089083        -1.735279         0.033600
 C        -2.099189        -0.683093         0.370122
 C        -1.576069         0.382091        -0.589737
 C        -0.550157        -0.675714        -1.297637
 C        -0.575457        -1.141330         0.282591
 C        -0.172143        -2.549647         0.601004
 C         0.229647         0.084598         0.790954
 O         1.297788         0.170333         1.367763
 O        -0.602781         1.064359         0.283149
 H        -2.867573        -2.239545        -0.911414
 H        -3.162026        -2.396608         0.888073
 H        -4.105041        -1.401363        -0.107328
 H        -2.389317        -0.183601         1.304322
 H        -1.977381         1.177374        -1.107333
 H        -1.146410        -1.398902        -2.008370
 H         0.432508        -0.423249        -1.695059
 H        -0.523180        -3.068692        -0.367749
 H         0.866547        -2.700196         0.767370
 H        -0.572434        -2.954184         1.581354
