19
Iteration:   410charge 0 multiplicity 1
 C        -3.039854        -1.459072         1.215454
 C        -1.712449        -0.676797         0.969838
 C        -1.717905         0.399725        -0.077410
 C        -1.500490        -0.720045        -1.151295
 C        -0.656577        -1.229676         0.059843
 C         0.017102        -2.567117         0.140880
 C         0.324355         0.002021         0.249546
 O         1.517110        -0.030591         0.276517
 O        -0.421415         1.143735         0.183142
 H        -3.355390        -1.429401         2.227996
 H        -3.880346        -1.101746         0.540359
 H        -2.893086        -2.511950         0.971550
 H        -1.309753        -0.383054         1.939409
 H        -2.428395         1.192253        -0.143469
 H        -2.487096        -1.143043        -1.186512
 H        -0.875213        -0.381488        -2.025245
 H        -0.367668        -3.267354         0.888661
 H         0.116995        -3.124922        -0.821384
 H         1.077736        -2.312196         0.372243
