19
Iteration:  3223
 C        -3.157744        -1.664780        -0.205678
 C        -2.042243        -0.838080         0.555561
 C        -1.658500         0.372358        -0.299516
 C        -0.899364        -0.504602        -1.212396
 C        -0.562206        -1.204498         0.192012
 C         0.212630        -2.505163         0.487330
 C         0.217626         0.012197         0.736169
 O         1.335842         0.073678         1.143089
 O        -0.587712         1.096378         0.483478
 H        -3.865820        -1.915414         0.581680
 H        -3.629189        -1.069907        -1.028395
 H        -2.927967        -2.738332        -0.357216
 H        -2.254690        -0.646663         1.625572
 H        -2.319686         1.224492        -0.682889
 H        -1.526356        -1.065074        -1.955272
 H        -0.220110         0.113578        -1.866430
 H         0.060840        -3.188828        -0.292679
 H         1.228138        -2.181688         0.587659
 H        -0.149320        -2.926004         1.372510
