19
Iteration:  1007charge 0 multiplicity 1
 C        -3.012231        -1.618219         0.851866
 C        -1.832809        -0.628458         0.829955
 C        -1.767354         0.401027        -0.199033
 C        -1.289533        -0.512232        -1.260979
 C        -0.548892        -1.238924        -0.058386
 C        -0.027411        -2.670828         0.115129
 C         0.394466        -0.016634         0.352090
 O         1.476837         0.105067         0.892761
 O        -0.472000         1.040120         0.258497
 H        -3.312115        -1.860156         1.880753
 H        -3.893313        -0.969536         0.573374
 H        -3.105421        -2.487709         0.185419
 H        -1.782181        -0.290616         1.877355
 H        -2.490638         1.223784        -0.339354
 H        -2.208718        -0.956952        -1.661334
 H        -0.702804        -0.119403        -2.082771
 H         0.484050        -3.151065        -0.731185
 H         0.605379        -2.689432         0.948328
 H        -0.961927        -3.273540         0.384420
