19
Iteration:  2905charge 0 multiplicity 1
 C        -3.203400        -1.633790         0.044250
 C        -1.985368        -0.799556         0.505204
 C        -1.595450         0.389684        -0.523186
 C        -0.750508        -0.663821        -1.223512
 C        -0.442429        -1.256540         0.178043
 C         0.074664        -2.662434         0.389610
 C         0.212550         0.074647         0.734754
 O         1.109789         0.316579         1.546258
 O        -0.503279         1.116686         0.178607
 H        -4.112095        -1.459398         0.628063
 H        -3.460136        -1.316136        -0.902743
 H        -3.062647        -2.723394        -0.052657
 H        -2.141210        -0.528063         1.618536
 H        -2.397025         0.962452        -0.859124
 H        -1.096899        -1.459145        -2.012987
 H         0.111739        -0.243995        -1.801110
 H        -0.718061        -3.382807         0.237520
 H         1.016013        -3.102285        -0.147990
 H         0.122590        -2.706563         1.484109
