19
Iteration:  3551
 C        -3.178998        -1.661828         0.349775
 C        -1.980410        -0.756057         0.531156
 C        -1.649936         0.348511        -0.348009
 C        -0.869241        -0.518465        -1.416941
 C        -0.369466        -1.212681        -0.022515
 C         0.208117        -2.567426        -0.104656
 C         0.234782         0.040513         0.731731
 O         1.124678         0.115868         1.564421
 O        -0.611766         1.105630         0.493405
 H        -3.394768        -2.140280         1.275465
 H        -4.136017        -1.189743         0.061736
 H        -2.902816        -2.470241        -0.274348
 H        -1.922795        -0.442597         1.553379
 H        -2.477700         1.071919        -0.408083
 H        -1.406951        -1.254880        -1.962749
 H        -0.223819         0.131615        -1.978779
 H         0.702173        -2.752853        -1.063292
 H         1.064883        -2.886342         0.566064
 H        -0.564547        -3.338174        -0.279817
