19
Iteration:  3729charge 0 multiplicity 1
 C        -3.133338        -1.835631         0.044524
 C        -1.957335        -0.970909         0.673279
 C        -1.757643         0.552060        -0.180802
 C        -0.921069        -0.358905        -1.230588
 C        -0.512514        -1.150038         0.068395
 C         0.127621        -2.518013         0.145171
 C         0.254467        -0.023706         0.665175
 O         1.318597         0.122923         1.179705
 O        -0.567259         1.090552         0.496601
 H        -3.479081        -1.195375        -0.809364
 H        -2.765750        -2.783482        -0.323943
 H        -3.939600        -2.068405         0.780603
 H        -1.987649        -0.873095         1.772791
 H        -2.466884         1.353732        -0.379119
 H        -1.437882        -1.018587        -1.969261
 H        -0.144643         0.003844        -1.813436
 H         0.991744        -2.872901        -0.535224
 H         0.418220        -2.654890         1.258785
 H        -0.724281        -3.300699         0.027395
