19
Iteration:  1140charge 0 multiplicity 1
 C        -3.028339        -1.732371         0.599049
 C        -1.853892        -0.646720         0.870436
 C        -1.631458         0.527134        -0.158492
 C        -1.301914        -0.640039        -1.220400
 C        -0.607424        -1.175060         0.094741
 C        -0.108701        -2.600781         0.211554
 C         0.321794         0.001305         0.438407
 O         1.431013         0.089918         0.862400
 O        -0.378435         1.100693         0.211974
 H        -2.700994        -2.731387         0.134764
 H        -3.549737        -1.982472         1.514005
 H        -3.568040        -1.112333        -0.178199
 H        -1.733337        -0.353163         1.957540
 H        -2.369369         1.231949        -0.454189
 H        -2.201509        -1.193792        -1.614932
 H        -0.566398        -0.527230        -2.008054
 H         0.340150        -2.821112         1.182849
 H        -0.860023        -3.338499        -0.071566
 H         0.587219        -2.678958        -0.645446
