19
Iteration:  2802
 C        -3.173507        -1.603848         0.052367
 C        -1.937113        -0.783994         0.448998
 C        -1.592811         0.305429        -0.557448
 C        -0.738990        -0.756530        -1.419523
 C        -0.411953        -1.235802         0.196655
 C         0.061289        -2.628916         0.559064
 C         0.231510         0.154660         0.740861
 O         1.088575         0.235452         1.558630
 O        -0.559629         1.163052         0.232611
 H        -2.996708        -2.689780        -0.003482
 H        -3.937963        -1.513691         0.925717
 H        -3.713433        -1.276314        -0.851088
 H        -2.215671        -0.274481         1.349882
 H        -2.224557         1.102395        -1.092013
 H        -1.380504        -1.513526        -1.855820
 H         0.058064        -0.357513        -2.121310
 H        -0.549977        -3.260432        -0.109707
 H         1.029456        -2.778816         0.300832
 H        -0.104848        -2.878891         1.598207
