19
Iteration:  2865charge 0 multiplicity 1
 C        -3.052972        -1.711654         0.278386
 C        -1.999329        -0.628650         0.433815
 C        -1.552486         0.400638        -0.649813
 C        -0.771102        -0.693059        -1.343002
 C        -0.449937        -1.101693         0.042324
 C         0.104378        -2.515477         0.427348
 C         0.185618        -0.008461         0.717186
 O         0.938241         0.031477         1.702214
 O        -0.531792         1.143042         0.124073
 H        -3.275548        -2.129758         1.248464
 H        -3.989322        -1.191992        -0.201895
 H        -2.672228        -2.544511        -0.344638
 H        -2.058772        -0.055659         1.352798
 H        -1.930296         1.349734        -1.232407
 H        -1.328263        -1.619953        -1.648814
 H         0.046176        -0.460427        -1.947987
 H        -0.554131        -3.397463         0.077560
 H         1.162153        -2.809563         0.108791
 H         0.201764        -2.489407         1.540144
