19
Iteration:   259
 C        -2.923456        -1.362955         1.486973
 C        -1.791252        -0.574353         1.079942
 C        -1.787175         0.400279        -0.078559
 C        -1.547436        -0.604799        -1.142241
 C        -0.569647        -1.199517        -0.074135
 C         0.056358        -2.612489        -0.100777
 C         0.334357        -0.157227         0.156707
 O         1.522239        -0.036837         0.252679
 O        -0.452690         1.043778         0.243963
 H        -3.085255        -2.337072         1.042145
 H        -2.825702        -1.654561         2.594486
 H        -3.893887        -0.863347         1.463904
 H        -1.286628        -0.191893         1.972980
 H        -2.571370         1.124935        -0.204453
 H        -2.439153        -1.215048        -1.350083
 H        -1.132429        -0.296743        -2.176197
 H         1.192150        -2.733531         0.022965
 H        -0.421398        -3.174733         0.727622
 H        -0.209490        -3.102148        -0.976090
