19
Iteration:  3280
 C        -3.139092        -1.794490         0.209531
 C        -1.965252        -0.794917         0.528955
 C        -1.692318         0.485028        -0.403725
 C        -0.738599        -0.436714        -1.380249
 C        -0.500922        -1.167456         0.071428
 C         0.075178        -2.638480         0.253817
 C         0.210228        -0.049146         0.781066
 O         1.205012         0.138618         1.423312
 O        -0.580535         1.130344         0.349052
 H        -3.843124        -1.683660         1.008624
 H        -3.730939        -1.515503        -0.738861
 H        -2.796814        -2.782095         0.001286
 H        -2.035484        -0.485637         1.604005
 H        -2.365110         1.301620        -0.673300
 H        -1.230158        -1.146684        -1.996500
 H         0.080272         0.185223        -1.844019
 H         0.293218        -2.932114        -0.745217
 H         0.936018        -2.792394         0.751014
 H        -0.605878        -3.354615         0.598990
