19
Iteration:  2277charge 0 multiplicity 1
 C        -3.237031        -1.564275        -0.056072
 C        -2.119469        -0.691926         0.383608
 C        -1.514812         0.348746        -0.564752
 C        -0.520755        -0.725745        -1.231531
 C        -0.551593        -1.201232         0.275302
 C         0.056080        -2.621575         0.651739
 C         0.159542         0.092409         0.761912
 O         1.249250         0.156027         1.324904
 O        -0.635252         1.105746         0.304867
 H        -3.189444        -1.900462        -1.125812
 H        -3.346631        -2.527950         0.621978
 H        -4.233188        -1.045983         0.016840
 H        -2.248405        -0.316496         1.421871
 H        -2.283233         0.995044        -1.063857
 H        -1.059656        -1.276025        -1.952099
 H         0.398196        -0.463952        -1.765615
 H        -0.634483        -3.365783         0.335367
 H         1.008090        -2.748567         0.121337
 H         0.186134        -2.829747         1.720190
