19
Iteration:  1035charge 0 multiplicity 1
 C        -3.130921        -1.561119         0.678411
 C        -1.827603        -0.751125         0.930124
 C        -1.764931         0.460343        -0.077265
 C        -1.228221        -0.585360        -1.181037
 C        -0.631987        -1.188509         0.112945
 C         0.070668        -2.567530         0.118874
 C         0.323426        -0.001482         0.405204
 O         1.465091        -0.008222         0.809488
 O        -0.433832         1.098794         0.099392
 H        -3.346827        -2.371408         1.381879
 H        -3.868059        -0.744963         0.804907
 H        -3.358670        -1.930873        -0.317302
 H        -1.709330        -0.768799         2.005708
 H        -2.508566         1.302099        -0.106534
 H        -1.955899        -1.365996        -1.345571
 H        -0.709463        -0.305897        -2.146279
 H         0.024300        -3.110162        -0.834605
 H         1.217022        -2.317877         0.270895
 H        -0.310830        -3.160143         0.919848
