19
Iteration:  2653charge 0 multiplicity 1
 C        -3.122044        -1.583913         0.119108
 C        -1.978086        -0.634073         0.510488
 C        -1.520727         0.383641        -0.619824
 C        -0.762073        -0.777227        -1.320705
 C        -0.466961        -1.233995         0.273741
 C         0.071026        -2.642870         0.395850
 C         0.234357         0.067439         0.795298
 O         1.038356         0.235379         1.651975
 O        -0.556212         1.080454         0.076586
 H        -3.234877        -1.587767        -1.001738
 H        -2.944963        -2.616083         0.386649
 H        -4.162158        -1.396139         0.484882
 H        -2.157936        -0.187706         1.529210
 H        -2.312844         1.030357        -0.981009
 H        -1.342680        -1.492726        -1.821134
 H        -0.018186        -0.442656        -2.103124
 H        -0.461977        -3.185149        -0.412597
 H         1.206764        -2.568872         0.133186
 H        -0.067747        -3.207327         1.337200
