19
Iteration:  1056
 C        -3.233736        -1.489465         0.713950
 C        -1.916161        -0.648490         0.868827
 C        -1.728855         0.402963        -0.189262
 C        -1.298163        -0.641231        -1.189766
 C        -0.593066        -1.183578         0.157799
 C         0.201151        -2.522272         0.135376
 C         0.346797        -0.014243         0.433508
 O         1.527710        -0.040451         0.735310
 O        -0.470666         1.067897         0.272256
 H        -3.081446        -2.586863         0.969795
 H        -4.210203        -1.265929         1.176564
 H        -3.449731        -1.566771        -0.368804
 H        -1.883940        -0.361557         1.913899
 H        -2.518385         1.085540        -0.551737
 H        -1.975489        -1.353957        -1.654737
 H        -0.636335        -0.206447        -1.993627
 H        -0.388826        -3.215746        -0.488697
 H         1.309637        -2.486607        -0.359199
 H         0.285956        -2.986995         1.100117
