19
Iteration:  4961charge 0 multiplicity 1
 C        -3.154057        -1.889588         0.265540
 C        -1.957784        -0.789064         0.578331
 C        -1.696511         0.559873        -0.300683
 C        -0.967061        -0.335815        -1.319455
 C        -0.429168        -1.130171        -0.091177
 C         0.290308        -2.472338        -0.062917
 C         0.164618        -0.077587         0.774125
 O         1.191259        -0.040816         1.457063
 O        -0.572047         1.126692         0.485141
 H        -2.987213        -2.783450         0.995323
 H        -4.129274        -1.403986         0.468710
 H        -3.187968        -2.447268        -0.685229
 H        -1.898466        -0.670062         1.732962
 H        -2.443129         1.221358        -0.748551
 H        -1.787085        -0.996853        -1.683705
 H        -0.200333         0.132513        -1.997870
 H        -0.127904        -3.246110        -0.713486
 H         1.269104        -2.309811        -0.435573
 H         0.264486        -2.911854         0.923965
