19
Iteration:  1522charge 0 multiplicity 1
 C        -3.206735        -1.517395         0.222713
 C        -1.961296        -0.765109         0.698017
 C        -1.653479         0.410503        -0.312273
 C        -0.977553        -0.669299        -1.234197
 C        -0.553073        -1.250758         0.111526
 C         0.117479        -2.542625         0.371087
 C         0.252043         0.025935         0.621087
 O         1.344827         0.106148         1.133121
 O        -0.486129         1.099632         0.265235
 H        -2.976366        -2.609793        -0.110145
 H        -3.848845        -1.764107         1.026805
 H        -3.715327        -1.128329        -0.684842
 H        -2.132926        -0.561154         1.751312
 H        -2.535347         0.988763        -0.564509
 H        -1.750177        -1.245458        -1.714817
 H        -0.199923        -0.458834        -2.043687
 H         0.352833        -2.591646         1.415258
 H        -0.525701        -3.352009         0.033288
 H         1.078485        -2.522154        -0.176540
