19
Iteration:  1736charge 0 multiplicity 1
 C        -3.063660        -1.651647         0.162108
 C        -1.975437        -0.679616         0.582593
 C        -1.600541         0.428607        -0.464339
 C        -0.893353        -0.729520        -1.281239
 C        -0.545788        -1.171700         0.123243
 C        -0.145268        -2.556342         0.408593
 C         0.276686         0.028528         0.738741
 O         1.299021         0.197910         1.375959
 O        -0.499008         1.073141         0.211486
 H        -3.666094        -1.828097         1.012193
 H        -3.748598        -1.343198        -0.671878
 H        -2.507049        -2.582167        -0.097033
 H        -1.979245        -0.362968         1.651530
 H        -2.236266         1.104938        -1.161439
 H        -1.535934        -1.429403        -1.741959
 H        -0.011880        -0.679330        -1.996205
 H        -0.896703        -3.321182         0.770066
 H         0.141190        -3.047609        -0.498251
 H         0.698740        -2.518419         1.145273
