19
Iteration:   413charge 0 multiplicity 1
 C        -3.058848        -1.466874         1.203894
 C        -1.731808        -0.685004         0.993078
 C        -1.758232         0.431859        -0.057746
 C        -1.484055        -0.721782        -1.133685
 C        -0.618462        -1.234374         0.044141
 C         0.030742        -2.576031         0.142644
 C         0.342039        -0.003943         0.220487
 O         1.516367        -0.024226         0.294097
 O        -0.406991         1.136986         0.160902
 H        -3.359613        -1.437478         2.264281
 H        -3.870353        -1.046277         0.602139
 H        -2.962124        -2.533932         0.921871
 H        -1.330218        -0.310394         1.957404
 H        -2.521170         1.263233        -0.099670
 H        -2.496963        -1.169365        -1.260683
 H        -0.917830        -0.366457        -2.030709
 H        -0.334577        -3.333073         0.966212
 H         0.051483        -3.160425        -0.836335
 H         1.036262        -2.300783         0.282078
