19
Iteration:  4433charge 0 multiplicity 1
 C        -3.016223        -1.840228        -0.029285
 C        -1.958386        -0.844155         0.553285
 C        -1.715426         0.502550        -0.191932
 C        -0.948550        -0.280091        -1.208724
 C        -0.548591        -1.123972         0.041148
 C         0.192457        -2.449729         0.153898
 C         0.206321        -0.057456         0.760283
 O         1.359600        -0.012260         1.121863
 O        -0.707890         1.052450         0.666599
 H        -3.257509        -2.593567         0.738851
 H        -4.012576        -1.510463        -0.366302
 H        -2.555163        -2.352240        -0.859479
 H        -2.047879        -0.867453         1.641381
 H        -2.567002         1.233711        -0.274397
 H        -1.733140        -0.871914        -1.791710
 H        -0.315227         0.220348        -2.010975
 H        -0.571670        -3.351852         0.183276
 H         0.847973        -2.588737        -0.784380
 H         0.930210        -2.504018         1.021498
