19
Iteration:  2468charge 0 multiplicity 1
 C        -3.292230        -1.632085        -0.098980
 C        -2.084557        -0.686347         0.381903
 C        -1.565965         0.357195        -0.488482
 C        -0.647118        -0.677802        -1.269027
 C        -0.565459        -1.160394         0.202850
 C         0.113135        -2.365242         0.687850
 C         0.192359        -0.043120         0.798922
 O         1.247667         0.068705         1.320306
 O        -0.542195         1.009647         0.292025
 H        -3.262652        -1.745835        -1.205570
 H        -3.257473        -2.613165         0.459855
 H        -4.314009        -1.196047         0.226090
 H        -2.449493        -0.257842         1.312403
 H        -2.151532         1.043411        -1.160522
 H        -1.096301        -1.368182        -1.941876
 H         0.288439        -0.293501        -1.800412
 H         0.002678        -3.251655         0.130459
 H         1.140235        -2.156320         0.980425
 H        -0.303160        -2.585842         1.667795
