19
Iteration:   108charge 0 multiplicity 1
 C        -2.920855        -1.400289         1.393443
 C        -1.615831        -0.686269         1.194184
 C        -1.798909         0.395266         0.108836
 C        -1.741162        -0.631269        -0.997372
 C        -0.629910        -1.223784         0.035162
 C        -0.046695        -2.600639        -0.148790
 C         0.411558        -0.021421         0.117575
 O         1.651201        -0.032532         0.082966
 O        -0.453249         1.075800         0.132909
 H        -2.836017        -1.682124         2.414449
 H        -3.794064        -0.711611         1.230504
 H        -3.014669        -2.280957         0.771240
 H        -1.170759        -0.274921         2.139949
 H        -2.622868         1.102318         0.141024
 H        -2.652301        -1.122581        -0.857222
 H        -1.453668        -0.394433        -2.015789
 H        -0.575966        -3.074344        -1.086523
 H         1.052722        -2.612313        -0.251055
 H        -0.290658        -3.286487         0.617371
