19
Iteration:  3105charge 0 multiplicity 1
 C        -3.111618        -1.659255         0.231062
 C        -1.910828        -0.740047         0.548463
 C        -1.567610         0.426537        -0.553572
 C        -0.893218        -0.591290        -1.355851
 C        -0.475930        -1.212428        -0.047186
 C         0.249177        -2.445532         0.295740
 C         0.200604         0.018555         0.649676
 O         0.944735        -0.021596         1.637458
 O        -0.500752         1.107875         0.310227
 H        -2.971837        -2.718106         0.387946
 H        -3.972673        -1.290633         0.885002
 H        -3.449862        -1.567985        -0.833836
 H        -2.015924        -0.426808         1.648074
 H        -2.377811         1.239673        -0.807558
 H        -1.723401        -1.128031        -1.870568
 H        -0.047585        -0.296444        -2.052380
 H        -0.510800        -3.324399         0.449956
 H         0.983748        -2.769141        -0.436852
 H         0.777199        -2.320599         1.298635
