19
Iteration:  2497
 C        -3.219024        -1.629392        -0.092927
 C        -1.981223        -0.732059         0.357061
 C        -1.538618         0.476540        -0.464290
 C        -0.540183        -0.704767        -1.315040
 C        -0.522181        -1.221437         0.239698
 C        -0.046549        -2.673735         0.730900
 C         0.149956         0.032576         0.769246
 O         1.281174         0.191029         1.239650
 O        -0.690997         1.165840         0.360624
 H        -3.253173        -1.850160        -1.149683
 H        -3.238709        -2.628279         0.421364
 H        -4.050429        -1.030984         0.201027
 H        -2.173219        -0.371402         1.445459
 H        -2.260103         0.935776        -1.154233
 H        -0.958771        -1.544011        -1.961272
 H         0.412662        -0.365283        -1.596582
 H        -0.655530        -3.476364         0.115375
 H         0.996931        -2.902769         0.556708
 H        -0.204226        -2.699301         1.867345
