19
Iteration:    22charge 0 multiplicity 1
 C        -2.746448        -1.574486         1.666743
 C        -1.710941        -0.620276         1.056102
 C        -1.772025         0.575255        -0.026791
 C        -1.722898        -0.559585        -1.133165
 C        -0.698671        -1.208825        -0.025373
 C        -0.125562        -2.653906        -0.090253
 C         0.380966        -0.068927         0.091529
 O         1.554029        -0.060761        -0.010425
 O        -0.368111         1.107725         0.304076
 H        -3.046675        -1.389187         2.665573
 H        -3.673402        -1.764088         1.137715
 H        -2.276715        -2.559077         1.688934
 H        -1.242336        -0.152442         1.937364
 H        -2.457519         1.415239        -0.068586
 H        -2.620558        -1.155196        -1.076348
 H        -1.343747        -0.418164        -2.139482
 H         0.928852        -2.651827         0.304872
 H        -0.712973        -3.399459         0.480233
 H        -0.081354        -3.008921        -1.103744
