19
Iteration:   515charge 0 multiplicity 1
 C        -2.987389        -1.624333         1.332951
 C        -1.829322        -0.669386         0.940109
 C        -1.673513         0.478355        -0.189702
 C        -1.297882        -0.559194        -1.213709
 C        -0.696333        -1.204301        -0.017680
 C        -0.057509        -2.564587         0.196939
 C         0.304161        -0.052363         0.209517
 O         1.481536         0.005194         0.520722
 O        -0.436742         1.085912         0.030073
 H        -2.624164        -2.680893         1.386909
 H        -3.145486        -1.327195         2.370511
 H        -3.922607        -1.533289         0.765898
 H        -1.277287        -0.230914         1.809361
 H        -2.441890         1.205462        -0.320907
 H        -2.238859        -0.975471        -1.619903
 H        -0.643869        -0.442176        -2.045171
 H         0.924957        -2.682971        -0.195590
 H        -0.083776        -2.719137         1.236811
 H        -0.713590        -3.383673        -0.302225
