19
Iteration:  4524charge 0 multiplicity 1
 C        -3.069714        -1.841758         0.371244
 C        -1.937889        -0.824753         0.504425
 C        -1.709832         0.481724        -0.371645
 C        -0.943164        -0.339700        -1.339812
 C        -0.437634        -1.109937        -0.036465
 C         0.248740        -2.455064        -0.099980
 C         0.138783        -0.063201         0.747674
 O         1.131161        -0.086481         1.506201
 O        -0.567172         1.151323         0.482554
 H        -2.813763        -2.794482         0.877764
 H        -3.807041        -1.496491         1.102674
 H        -3.519610        -1.991521        -0.680801
 H        -1.739253        -0.765154         1.644361
 H        -2.575333         1.105188        -0.625539
 H        -1.457957        -0.930979        -2.077798
 H        -0.306114         0.304337        -1.959633
 H        -0.384303        -3.163747        -0.585467
 H         1.193407        -2.314161        -0.673315
 H         0.594665        -2.820169         0.909547
