19
Iteration:  2681charge 0 multiplicity 1
 C        -3.108661        -1.785031         0.049233
 C        -1.982849        -0.776920         0.435880
 C        -1.583330         0.431792        -0.611899
 C        -0.699950        -0.652475        -1.328747
 C        -0.504409        -1.186559         0.184088
 C        -0.082759        -2.539917         0.600987
 C         0.187789         0.074816         0.714301
 O         1.132998         0.200336         1.481706
 O        -0.438979         1.129171         0.253799
 H        -3.327466        -1.756159        -1.003980
 H        -2.987963        -2.882215         0.314301
 H        -4.040809        -1.519032         0.541747
 H        -2.157093        -0.452422         1.480187
 H        -2.357166         1.221119        -0.967908
 H        -1.359316        -1.409165        -1.882139
 H         0.096558        -0.206684        -1.949835
 H        -0.708863        -3.328076         0.091135
 H         0.904043        -2.768925         0.429510
 H        -0.185059        -2.611121         1.700407
