19
Iteration:  2980
 C        -3.117039        -1.853158        -0.012264
 C        -2.017266        -0.790920         0.435398
 C        -1.672783         0.452230        -0.500652
 C        -0.743841        -0.392720        -1.326595
 C        -0.573888        -1.164597         0.149506
 C        -0.003533        -2.438924         0.694995
 C         0.209982        -0.004162         0.774148
 O         1.374251         0.016123         1.224122
 O        -0.638133         1.078047         0.385927
 H        -3.604185        -1.345616        -0.957841
 H        -2.779944        -2.827966        -0.394631
 H        -3.955152        -1.965112         0.777834
 H        -2.203904        -0.507507         1.500369
 H        -2.295064         1.143879        -0.968541
 H        -1.197869        -1.047146        -2.140394
 H         0.300448        -0.088657        -1.580874
 H        -0.296330        -3.251540         0.110544
 H         1.095704        -2.445504         0.596674
 H        -0.136784        -2.526112         1.767714
