19
Iteration:  4819
 C        -3.096820        -1.853376         0.143169
 C        -2.052886        -0.793439         0.623149
 C        -1.711226         0.439543        -0.156498
 C        -1.041971        -0.347631        -1.357640
 C        -0.419911        -1.167464        -0.021111
 C         0.269090        -2.451596         0.014571
 C         0.273732        -0.027709         0.644901
 O         1.228057        -0.000672         1.366336
 O        -0.575763         1.080464         0.544632
 H        -3.004981        -2.777324         0.700119
 H        -4.001508        -1.316058         0.249000
 H        -2.890045        -2.068852        -0.873097
 H        -2.046498        -0.620089         1.663659
 H        -2.413892         1.258428        -0.401958
 H        -1.824224        -0.917395        -1.889216
 H        -0.407942         0.307447        -2.013800
 H        -0.143323        -3.255308        -0.606252
 H         1.352435        -2.389971        -0.102291
 H        -0.011423        -2.741680         1.068827
