19
Iteration:  2275charge 0 multiplicity 1
 C        -3.238296        -1.580287        -0.039923
 C        -2.135230        -0.675362         0.367131
 C        -1.514253         0.372561        -0.558820
 C        -0.508560        -0.740054        -1.233355
 C        -0.551081        -1.218130         0.274228
 C         0.061316        -2.632270         0.647758
 C         0.146902         0.098097         0.783954
 O         1.244796         0.162446         1.306209
 O        -0.634810         1.112958         0.310143
 H        -3.154142        -1.931865        -1.068025
 H        -3.286167        -2.486114         0.593966
 H        -4.207097        -1.043839         0.032014
 H        -2.261393        -0.362032         1.430401
 H        -2.241184         1.124873        -1.111260
 H        -1.071832        -1.285402        -1.944488
 H         0.489151        -0.536589        -1.751550
 H        -0.616748        -3.372552         0.333873
 H         1.063235        -2.785909         0.084025
 H         0.080292        -2.875716         1.696803
