19
Iteration:  1351charge 0 multiplicity 1
 C        -3.291731        -1.534251         0.484807
 C        -2.018343        -0.743360         0.694934
 C        -1.662114         0.420350        -0.334620
 C        -0.969491        -0.665497        -1.191745
 C        -0.554588        -1.214306         0.202623
 C         0.111985        -2.541183         0.181608
 C         0.314543        -0.034052         0.600047
 O         1.471313         0.089163         0.952872
 O        -0.548038         1.111453         0.273353
 H        -4.226748        -1.094134         0.870200
 H        -3.396404        -1.783105        -0.622048
 H        -3.292036        -2.511329         1.010497
 H        -1.811925        -0.422511         1.755347
 H        -2.454066         1.068782        -0.675821
 H        -1.709679        -1.398589        -1.507933
 H        -0.233795        -0.390944        -1.943025
 H         0.939987        -2.428951         0.863996
 H        -0.498110        -3.251803         0.783408
 H         0.442614        -2.907878        -0.773105
