19
Iteration:  2083
 C        -2.972036        -1.673177        -0.090027
 C        -2.016034        -0.701738         0.516688
 C        -1.550661         0.450876        -0.561613
 C        -0.795690        -0.617381        -1.326827
 C        -0.515233        -1.202246         0.207899
 C        -0.051280        -2.572220         0.628192
 C         0.229740        -0.059759         0.747782
 O         1.061649         0.106801         1.588024
 O        -0.489573         1.173551         0.117865
 H        -2.686606        -1.944891        -1.066116
 H        -3.165416        -2.621240         0.419071
 H        -3.914342        -1.199472        -0.130453
 H        -2.161484        -0.299229         1.542923
 H        -2.366190         1.085316        -0.839930
 H        -1.420080        -1.358288        -1.844920
 H         0.139886        -0.446722        -1.945798
 H        -0.931829        -3.319381         0.762546
 H         0.557440        -3.004900        -0.210748
 H         0.534071        -2.522478         1.604475
