19
Iteration:  2812
 C        -3.193434        -1.669096         0.141724
 C        -1.985067        -0.685403         0.430501
 C        -1.490758         0.324096        -0.596843
 C        -0.769732        -0.671105        -1.376851
 C        -0.418918        -1.170761         0.117864
 C         0.110583        -2.551890         0.533674
 C         0.238140         0.002538         0.718739
 O         1.047823         0.214419         1.624991
 O        -0.575064         1.100314         0.172823
 H        -2.855594        -2.717768         0.158217
 H        -4.056158        -1.517222         0.932314
 H        -3.590948        -1.490295        -0.886907
 H        -2.002432        -0.200028         1.374888
 H        -2.321645         1.022825        -1.014158
 H        -1.394843        -1.364229        -1.940703
 H         0.097631        -0.450963        -2.000347
 H        -0.533086        -3.322700         0.059708
 H         1.057151        -2.859668         0.407979
 H        -0.168627        -2.729128         1.567489
