19
Iteration:   269charge 0 multiplicity 1
 C        -3.020004        -1.441145         1.586636
 C        -1.746966        -0.602976         1.126819
 C        -1.833098         0.466582        -0.056294
 C        -1.511921        -0.538838        -1.215126
 C        -0.554751        -1.264689        -0.103758
 C         0.052912        -2.635875        -0.067758
 C         0.351798        -0.050829         0.158161
 O         1.565115        -0.096218         0.265904
 O        -0.498642         1.031922         0.161181
 H        -3.187126        -2.129738         0.768314
 H        -2.939391        -1.908713         2.643449
 H        -3.861849        -0.740196         1.524024
 H        -1.192796        -0.164116         1.962454
 H        -2.539447         1.245686        -0.206969
 H        -2.358462        -1.203855        -1.473679
 H        -0.885512        -0.087653        -2.100755
 H         1.181285        -2.423286        -0.172787
 H        -0.151589        -3.086172         0.938571
 H        -0.286946        -3.331182        -0.862025
