19
Iteration:  2755
 C        -3.162148        -1.686777        -0.193936
 C        -2.160684        -0.677570         0.419600
 C        -1.670606         0.330929        -0.538835
 C        -0.747311        -0.655525        -1.177729
 C        -0.564238        -1.246565         0.342846
 C         0.063232        -2.591464         0.658324
 C         0.250379         0.078896         0.778243
 O         1.379070         0.230900         1.278830
 O        -0.585043         1.111849         0.313251
 H        -2.643324        -2.427105        -0.848944
 H        -3.800332        -2.308276         0.538608
 H        -3.937659        -1.153024        -0.852417
 H        -2.356574        -0.369851         1.410455
 H        -2.252993         1.152757        -1.040088
 H        -1.135297        -1.558319        -1.730306
 H         0.176901        -0.282401        -1.521310
 H        -0.443193        -3.436481         0.209469
 H         1.049472        -2.613815         0.225152
 H         0.220678        -2.762131         1.723904
