19
Iteration:  3332charge 0 multiplicity 1
 C        -3.046714        -1.672442         0.339591
 C        -1.927637        -0.751065         0.543844
 C        -1.638716         0.405181        -0.434955
 C        -0.892608        -0.502580        -1.321571
 C        -0.471298        -1.181900         0.000100
 C         0.141464        -2.563145         0.039181
 C         0.205754        -0.019757         0.770610
 O         1.078246         0.079858         1.617313
 O        -0.564663         1.095916         0.240614
 H        -3.990381        -1.238138         0.583814
 H        -3.149292        -2.074015        -0.703028
 H        -2.849248        -2.538479         0.998564
 H        -2.032406        -0.335380         1.531275
 H        -2.358313         1.208750        -0.739230
 H        -1.486493        -1.065568        -1.964846
 H        -0.050242        -0.104622        -1.932167
 H         1.001182        -2.650361        -0.633675
 H         0.487807        -2.862241         1.075808
 H        -0.552457        -3.382924        -0.130806
