19
Iteration:  1811
 C        -3.274383        -1.542145         0.055265
 C        -2.011729        -0.724153         0.427847
 C        -1.555581         0.415325        -0.496173
 C        -0.776488        -0.660787        -1.336197
 C        -0.536738        -1.288397         0.104662
 C         0.157407        -2.598729         0.723978
 C         0.268250         0.003739         0.613362
 O         1.285538         0.055896         1.262443
 O        -0.666243         1.150952         0.388265
 H        -2.963764        -2.624534         0.035005
 H        -4.063844        -1.458438         0.897814
 H        -3.604325        -1.256558        -1.010400
 H        -2.140931        -0.204486         1.395352
 H        -2.209260         1.270545        -0.942359
 H        -1.525170        -1.092881        -1.970793
 H         0.114671        -0.303262        -1.992548
 H         0.253793        -2.311587         1.806907
 H        -0.505708        -3.401341         0.846353
 H         1.172415        -2.849596         0.451380
