19
Iteration:  3039charge 0 multiplicity 1
 C        -3.155417        -1.671027         0.121152
 C        -1.985996        -0.744699         0.510928
 C        -1.613434         0.349772        -0.477605
 C        -0.761884        -0.638636        -1.298954
 C        -0.517023        -1.191463         0.183161
 C         0.072423        -2.540706         0.240512
 C         0.188931         0.034310         0.816121
 O         1.181522         0.233232         1.458310
 O        -0.527482         1.063865         0.291689
 H        -2.945350        -2.311843        -0.673481
 H        -3.310642        -2.208540         1.064670
 H        -4.068230        -1.152053        -0.111100
 H        -2.105179        -0.252444         1.533384
 H        -2.471669         1.037938        -0.876284
 H        -1.345386        -1.307892        -1.964837
 H         0.204498        -0.411166        -1.751461
 H        -0.409736        -3.263272        -0.498301
 H         1.168999        -2.588658         0.064137
 H        -0.226890        -3.119764         1.123254
