19
Iteration:  1769charge 0 multiplicity 1
 C        -3.175408        -1.660946         0.054567
 C        -2.103639        -0.672963         0.583395
 C        -1.614872         0.439674        -0.463804
 C        -0.721975        -0.643786        -1.225223
 C        -0.578959        -1.212625         0.268245
 C        -0.071991        -2.651580         0.543338
 C         0.271294         0.052565         0.675407
 O         1.341741         0.148637         1.218465
 O        -0.509710         1.126244         0.225019
 H        -3.246425        -2.448152         0.787325
 H        -4.215555        -1.248010        -0.016666
 H        -2.888999        -2.172267        -0.923906
 H        -2.201020        -0.536514         1.677592
 H        -2.383091         1.100880        -1.000442
 H        -1.242770        -1.309578        -1.854278
 H         0.245083        -0.265990        -1.677330
 H        -0.625756        -3.271600         1.314660
 H        -0.132069        -3.130028        -0.400425
 H         1.014760        -2.572813         0.810152
