19
Iteration:  4027charge 0 multiplicity 1
 C        -3.005880        -1.872286         0.385680
 C        -1.883201        -0.909483         0.693044
 C        -1.742031         0.547134        -0.290592
 C        -1.168010        -0.359761        -1.325190
 C        -0.491869        -1.139767        -0.174396
 C         0.300226        -2.432979        -0.088233
 C         0.224971        -0.049943         0.670429
 O         1.063603        -0.164060         1.513284
 O        -0.471034         1.263506         0.375524
 H        -3.009543        -2.501609         1.302046
 H        -3.885284        -1.077178         0.302001
 H        -2.919244        -2.565260        -0.483439
 H        -1.801251        -0.636703         1.816700
 H        -2.523107         1.232099        -0.632434
 H        -1.841505        -0.824369        -2.006599
 H        -0.235436        -0.015750        -1.876226
 H         1.278966        -2.228314        -0.589819
 H         0.555020        -2.708574         0.903337
 H        -0.231182        -3.323452        -0.352908
