19
Iteration:  2954charge 0 multiplicity 1
 C        -3.112807        -1.720639        -0.083666
 C        -2.107042        -0.679139         0.412659
 C        -1.597158         0.408267        -0.458058
 C        -0.733007        -0.615143        -1.220379
 C        -0.531097        -1.199863         0.143362
 C         0.130483        -2.521123         0.641552
 C         0.139559         0.046647         0.734114
 O         1.246471         0.091102         1.184298
 O        -0.609040         1.112324         0.488305
 H        -3.994493        -1.250786        -0.560389
 H        -2.743049        -2.458615        -0.899181
 H        -3.458023        -2.266692         0.783724
 H        -2.354573        -0.414853         1.409035
 H        -2.198304         1.167408        -1.085788
 H        -1.228694        -1.310726        -1.811491
 H         0.232772        -0.410582        -1.729390
 H        -0.370938        -3.450393         0.134040
 H         1.150978        -2.503006         0.239847
 H         0.179139        -2.639837         1.773141
