19
Iteration:  4737
 C        -3.067098        -1.799148         0.343910
 C        -1.923320        -0.819533         0.526669
 C        -1.756516         0.522263        -0.308303
 C        -0.850687        -0.422935        -1.302316
 C        -0.386627        -1.106094        -0.046393
 C         0.167942        -2.525172        -0.175580
 C         0.194914        -0.018134         0.735318
 O         1.112610         0.050513         1.503118
 O        -0.598417         1.055485         0.528878
 H        -2.653950        -2.721501         0.834612
 H        -4.093576        -1.634432         0.914578
 H        -3.220700        -2.079307        -0.774784
 H        -2.073169        -0.628259         1.698953
 H        -2.331194         1.450536        -0.432679
 H        -1.491387        -1.031669        -1.947245
 H        -0.132019        -0.123413        -2.045795
 H        -0.669714        -3.140887        -0.553881
 H         0.872810        -2.403342        -1.010734
 H         0.703708        -3.016777         0.587824
