19
Iteration:  3885charge 0 multiplicity 1
 C        -3.098677        -1.932488         0.019019
 C        -2.006926        -0.846272         0.651416
 C        -1.820637         0.495235        -0.152390
 C        -0.983781        -0.225079        -1.304304
 C        -0.588264        -1.131359         0.027773
 C         0.232795        -2.423241         0.177241
 C         0.279992        -0.034394         0.613471
 O         1.419384        -0.042359         1.180169
 O        -0.602948         1.041144         0.581428
 H        -2.817338        -2.962016        -0.242630
 H        -3.814850        -1.898218         0.899122
 H        -3.775331        -1.455612        -0.756520
 H        -2.006209        -0.726759         1.792748
 H        -2.630472         1.275894        -0.237585
 H        -1.573298        -0.810594        -1.932378
 H        -0.154714         0.383126        -1.708012
 H         1.408865        -2.242631        -0.182198
 H         0.208107        -2.801082         1.244526
 H        -0.392819        -3.237208        -0.399409
