19
Iteration:  4475charge 0 multiplicity 1
 C        -3.102669        -1.772412         0.128542
 C        -1.909507        -0.946646         0.566993
 C        -1.722753         0.442057        -0.175350
 C        -0.986406        -0.338365        -1.229811
 C        -0.445937        -1.176182         0.051955
 C         0.175604        -2.547266        -0.149652
 C         0.264898         0.009300         0.836264
 O         1.255737         0.124690         1.430463
 O        -0.643186         1.070244         0.450408
 H        -3.264591        -2.618900         0.827908
 H        -4.006638        -1.104041        -0.093148
 H        -2.920463        -2.104943        -0.880783
 H        -1.914126        -0.669957         1.608568
 H        -2.485678         1.234465        -0.433467
 H        -1.667582        -0.986096        -1.858229
 H        -0.199237         0.055555        -1.931628
 H        -0.714091        -3.281624        -0.030178
 H         0.728584        -2.698520        -1.120084
 H         1.049065        -2.651048         0.534592
