19
Iteration:  3497
 C        -3.062627        -1.794497         0.046711
 C        -2.038364        -0.814936         0.609724
 C        -1.822635         0.501501        -0.304176
 C        -1.003018        -0.417178        -1.200259
 C        -0.532634        -1.192126        -0.003338
 C         0.230224        -2.480433         0.278218
 C         0.259936         0.021477         0.655983
 O         1.321833        -0.040903         1.295120
 O        -0.535219         1.110475         0.426702
 H        -2.891598        -2.858762         0.097883
 H        -3.968839        -1.713101         0.688549
 H        -3.354786        -1.562219        -0.957521
 H        -2.037471        -0.585361         1.675223
 H        -2.523142         1.331388        -0.431375
 H        -1.544924        -0.887403        -2.023704
 H        -0.240116         0.147877        -1.745167
 H         1.130626        -2.559755        -0.400306
 H         0.549694        -2.548054         1.422768
 H        -0.389335        -3.426804         0.179297
