19
Iteration:  1880
 C        -3.078007        -1.669048         0.194177
 C        -1.971721        -0.599714         0.452081
 C        -1.439971         0.405731        -0.574607
 C        -0.766955        -0.685561        -1.318118
 C        -0.527284        -1.245077         0.168244
 C        -0.109603        -2.715724         0.427880
 C         0.193816         0.061748         0.755385
 O         1.083020         0.283862         1.513559
 O        -0.476442         1.074725         0.185523
 H        -3.028576        -2.090240        -0.817418
 H        -3.070059        -2.439026         0.946911
 H        -4.050633        -1.068210         0.188268
 H        -2.203472        -0.151486         1.415941
 H        -2.124031         1.136596        -0.886628
 H        -1.449462        -1.458701        -1.745683
 H         0.100552        -0.595685        -1.903201
 H         0.987123        -2.828548         0.406386
 H        -0.379387        -3.120570         1.379232
 H        -0.404279        -3.399308        -0.381491
