19
Iteration:  1830charge 0 multiplicity 1
 C        -3.216304        -1.548507         0.001148
 C        -2.016907        -0.715142         0.506568
 C        -1.606966         0.374496        -0.510607
 C        -0.811166        -0.687004        -1.291576
 C        -0.563737        -1.231877         0.167079
 C         0.132315        -2.484031         0.645150
 C         0.179786        -0.007974         0.724459
 O         1.227841         0.104441         1.327433
 O        -0.481380         1.075437         0.255722
 H        -2.939707        -2.581230        -0.345463
 H        -3.874405        -1.698090         0.874975
 H        -3.740301        -1.035075        -0.770931
 H        -2.131554        -0.545425         1.585730
 H        -2.251723         1.197207        -0.879042
 H        -1.475709        -1.336641        -1.935687
 H         0.012196        -0.343485        -1.945369
 H         0.884339        -2.374628         1.417823
 H        -0.578252        -3.316064         1.005636
 H         0.674475        -2.903914        -0.199826
