19
Iteration:  2718
 C        -3.076499        -1.767014        -0.047253
 C        -2.004447        -0.729657         0.388677
 C        -1.643636         0.418883        -0.594350
 C        -0.650580        -0.592321        -1.287666
 C        -0.580421        -1.144868         0.168480
 C        -0.006477        -2.476276         0.821706
 C         0.141345         0.012485         0.679568
 O         1.215134         0.035876         1.240486
 O        -0.584132         1.126559         0.418733
 H        -2.793854        -1.981226        -1.087676
 H        -2.965585        -2.641312         0.517659
 H        -4.091294        -1.399211        -0.085366
 H        -2.251269        -0.250259         1.390367
 H        -2.220925         1.183134        -1.074636
 H        -0.932731        -1.325503        -1.998984
 H         0.282067        -0.143802        -1.737196
 H        -0.683926        -3.351801         0.690128
 H         1.077102        -2.683919         0.406188
 H         0.012226        -2.320043         1.927180
