19
Iteration:  4380
 C        -3.080580        -1.804278         0.026599
 C        -2.016526        -0.908579         0.548182
 C        -1.745415         0.386176        -0.159318
 C        -0.937730        -0.347246        -1.287831
 C        -0.524664        -1.166896         0.094688
 C         0.137511        -2.576145         0.055684
 C         0.256205         0.032263         0.797245
 O         1.382936         0.165074         1.137623
 O        -0.618518         1.079494         0.643370
 H        -2.953464        -2.770341         0.472995
 H        -4.049432        -1.377679         0.247509
 H        -3.122145        -1.844748        -1.072287
 H        -2.290895        -0.844963         1.638971
 H        -2.550705         1.174447        -0.135046
 H        -1.421838        -0.877216        -2.133916
 H        -0.130209         0.264117        -1.694883
 H        -0.345338        -3.152917        -0.698305
 H         1.213146        -2.548277        -0.006265
 H         0.043154        -2.977746         1.038362
