19
Iteration:   625charge 0 multiplicity 1
 C        -2.999306        -1.500912         1.052579
 C        -1.807530        -0.595662         0.945155
 C        -1.731138         0.415385        -0.199176
 C        -1.364925        -0.685327        -1.242320
 C        -0.623184        -1.222195         0.015300
 C         0.011773        -2.628046         0.176248
 C         0.301299         0.003006         0.256220
 O         1.503151        -0.036338         0.421126
 O        -0.478814         1.131637         0.398375
 H        -2.818173        -2.082101         1.953011
 H        -3.933116        -0.871418         1.181973
 H        -3.356982        -2.162979         0.257455
 H        -1.458016        -0.080246         1.893474
 H        -2.318114         1.268697        -0.504618
 H        -2.120605        -1.335914        -1.642243
 H        -0.786462        -0.336362        -2.093266
 H        -0.590982        -3.404806         0.578768
 H         0.342516        -3.046151        -0.721629
 H         0.902822        -2.571745         0.949136
