19
Iteration:  4776
 C        -3.090137        -1.811239         0.395049
 C        -1.909348        -0.882935         0.684709
 C        -1.722187         0.485957        -0.303770
 C        -0.890789        -0.353986        -1.372395
 C        -0.424463        -1.096880        -0.084754
 C         0.233794        -2.509133        -0.208558
 C         0.218850         0.087740         0.664802
 O         1.061217        -0.048169         1.557300
 O        -0.590852         1.066875         0.438472
 H        -3.120379        -2.699719         1.021369
 H        -4.009065        -1.293674         0.514905
 H        -3.162661        -2.124555        -0.607979
 H        -1.829638        -0.495881         1.650423
 H        -2.545249         1.231663        -0.324519
 H        -1.443235        -1.115138        -1.950028
 H        -0.013057         0.137881        -1.873087
 H        -0.358071        -3.147352        -0.914113
 H         1.303425        -2.511828        -0.529107
 H         0.342221        -2.976738         0.836799
