19
Iteration:  4030charge 0 multiplicity 1
 C        -2.998009        -1.883720         0.379788
 C        -1.901523        -0.907755         0.724641
 C        -1.746391         0.578522        -0.303764
 C        -1.159312        -0.364338        -1.341015
 C        -0.487455        -1.118850        -0.184018
 C         0.311106        -2.414858        -0.086345
 C         0.220377        -0.063960         0.682469
 O         1.067423        -0.171298         1.538473
 O        -0.476039         1.240177         0.351637
 H        -3.008195        -2.483908         1.280320
 H        -3.811829        -1.120364         0.437973
 H        -3.048448        -2.544928        -0.477224
 H        -1.694284        -0.680013         1.817879
 H        -2.505416         1.256771        -0.626350
 H        -1.805038        -0.795567        -2.100846
 H        -0.382322         0.004046        -1.948885
 H         1.318174        -2.228544        -0.682816
 H         0.612698        -2.762627         0.977548
 H        -0.323765        -3.310768        -0.327689
