19
Iteration:  2780
 C        -3.156644        -1.566987        -0.103362
 C        -1.977001        -0.804255         0.519767
 C        -1.546289         0.317813        -0.464005
 C        -0.703594        -0.728398        -1.185254
 C        -0.524242        -1.275953         0.240628
 C         0.034964        -2.587883         0.511867
 C         0.201242         0.029994         0.800229
 O         1.197098         0.354768         1.380553
 O        -0.607673         1.101820         0.188386
 H        -2.893879        -2.541437        -0.525990
 H        -4.030006        -1.791155         0.631212
 H        -3.594525        -0.969294        -0.919582
 H        -2.202886        -0.403431         1.528014
 H        -2.298017         0.974991        -1.056175
 H        -1.270629        -1.476956        -1.753792
 H         0.307110        -0.502866        -1.640293
 H        -0.594723        -3.359887         0.004169
 H         1.011692        -2.758147         0.266735
 H        -0.119635        -2.740423         1.573921
