19
Iteration:   519
 C        -2.983028        -1.632573         1.320218
 C        -1.847255        -0.662417         1.013228
 C        -1.657513         0.493638        -0.213515
 C        -1.340700        -0.597447        -1.248310
 C        -0.625997        -1.192611        -0.020983
 C        -0.056921        -2.582284         0.172080
 C         0.299685        -0.047996         0.212640
 O         1.466951        -0.010197         0.528037
 O        -0.442038         1.112466         0.040234
 H        -2.645481        -2.647382         1.298878
 H        -3.232778        -1.350883         2.406268
 H        -3.865818        -1.452310         0.689364
 H        -1.270001        -0.276240         1.853628
 H        -2.419921         1.269461        -0.376183
 H        -2.307273        -1.017319        -1.570651
 H        -0.582638        -0.376777        -2.142505
 H         0.932739        -2.723506        -0.284451
 H         0.009966        -2.640427         1.310347
 H        -0.780309        -3.423664        -0.101553
