19
Iteration:  4092charge 0 multiplicity 1
 C        -3.111598        -1.796070         0.287657
 C        -1.924136        -0.881129         0.596788
 C        -1.706020         0.353061        -0.281373
 C        -0.870338        -0.380319        -1.265997
 C        -0.414110        -1.154585        -0.012352
 C         0.101549        -2.518178        -0.140480
 C         0.228378         0.007442         0.743441
 O         1.257000         0.134071         1.368476
 O        -0.616374         1.116692         0.520863
 H        -2.814458        -2.868391         0.476474
 H        -3.918887        -1.519110         1.089047
 H        -3.628729        -1.806721        -0.690396
 H        -2.109062        -0.611152         1.684495
 H        -2.609154         0.916150        -0.508526
 H        -1.686172        -0.932174        -1.715401
 H        -0.139378         0.180868        -1.962608
 H         0.766680        -2.543331        -1.006075
 H         0.663873        -2.871067         0.679827
 H        -0.728491        -3.176600        -0.351143
