19
Iteration:   952
 C        -3.092334        -1.657696         0.924331
 C        -1.896095        -0.536819         0.886779
 C        -1.776587         0.505256        -0.142031
 C        -1.231657        -0.553101        -1.231359
 C        -0.592329        -1.225808         0.057870
 C         0.024727        -2.600080         0.088493
 C         0.357627        -0.104144         0.407791
 O         1.495486         0.008685         0.774609
 O        -0.477857         1.079392         0.139301
 H        -3.400195        -1.969935         1.925060
 H        -4.110341        -1.524786         0.384891
 H        -2.733483        -2.603120         0.439351
 H        -1.600040        -0.279908         1.954329
 H        -2.539909         1.338541        -0.335587
 H        -1.938543        -1.052369        -1.877128
 H        -0.485314        -0.010100        -1.836709
 H         1.108742        -2.564621         0.316792
 H        -0.515248        -3.354873         0.557840
 H         0.107886        -2.980060        -1.030772
