19
Iteration:  4579charge 0 multiplicity 1
 C        -2.922099        -1.801778         0.147147
 C        -1.940841        -0.803959         0.606148
 C        -1.769612         0.444265        -0.215847
 C        -0.993157        -0.400261        -1.330041
 C        -0.489134        -1.120452        -0.019318
 C         0.150316        -2.577827        -0.003940
 C         0.215555         0.053546         0.690154
 O         1.234408         0.029125         1.369222
 O        -0.590821         1.116951         0.547150
 H        -2.904206        -2.839945         0.539327
 H        -3.845784        -1.328111         0.561706
 H        -3.141826        -1.977264        -0.932377
 H        -1.997681        -0.731765         1.760969
 H        -2.641290         1.112887        -0.246100
 H        -1.743340        -0.928613        -1.891292
 H        -0.227754        -0.015578        -2.049020
 H         0.020351        -3.269588        -0.813956
 H         1.246362        -2.433098         0.120356
 H        -0.387657        -3.104751         0.853094
