19
Iteration:  2760charge 0 multiplicity 1
 C        -3.174162        -1.650581        -0.193597
 C        -2.187477        -0.666551         0.478208
 C        -1.640248         0.293201        -0.509310
 C        -0.714044        -0.689562        -1.201017
 C        -0.514883        -1.191063         0.360980
 C         0.057112        -2.618311         0.646556
 C         0.240018         0.079023         0.727847
 O         1.299665         0.281374         1.288157
 O        -0.550150         1.046835         0.303174
 H        -2.660834        -2.425508        -0.742999
 H        -3.848759        -2.178152         0.515607
 H        -3.792557        -1.122018        -0.882635
 H        -2.416494        -0.378086         1.555189
 H        -2.286052         1.113686        -0.941664
 H        -1.104488        -1.446870        -1.877123
 H         0.196043        -0.085649        -1.690186
 H        -0.490607        -3.445413         0.104886
 H         1.082523        -2.596931         0.158429
 H         0.217981        -3.013332         1.674860
