19
Iteration:  3389
 C        -3.098220        -1.686153         0.132856
 C        -1.972449        -0.768993         0.578135
 C        -1.756095         0.441382        -0.366823
 C        -1.004887        -0.500077        -1.377926
 C        -0.494664        -1.176899         0.069166
 C         0.231385        -2.537644         0.299005
 C         0.226263        -0.001882         0.666621
 O         1.245526         0.001777         1.318269
 O        -0.535472         1.104040         0.458431
 H        -3.680472        -1.305091        -0.725274
 H        -2.638317        -2.698880        -0.099202
 H        -3.776185        -1.847351         0.960963
 H        -2.142424        -0.316316         1.592138
 H        -2.470507         1.244947        -0.489197
 H        -1.526078        -1.281871        -1.891251
 H        -0.210801         0.081521        -1.890093
 H         1.273673        -2.410799         0.582391
 H        -0.245382        -2.940623         1.168321
 H         0.164898        -3.118724        -0.599182
