19
Iteration:  3249
 C        -3.077108        -1.690433        -0.115842
 C        -2.017342        -0.788928         0.570343
 C        -1.712740         0.496182        -0.289206
 C        -0.951334        -0.591881        -1.269861
 C        -0.518826        -1.164339         0.081533
 C         0.186610        -2.499316         0.426937
 C         0.271142        -0.034045         0.707452
 O         1.322219         0.008690         1.308986
 O        -0.645394         1.166238         0.414583
 H        -3.842860        -1.857382         0.662493
 H        -3.475748        -1.193025        -1.044211
 H        -2.746699        -2.703413        -0.298922
 H        -2.112091        -0.693255         1.686146
 H        -2.410804         1.245242        -0.567729
 H        -1.648680        -1.299149        -1.737082
 H        -0.121895        -0.142018        -1.935190
 H         0.324132        -3.131455        -0.502050
 H         1.170115        -2.233143         0.817080
 H        -0.444337        -3.176255         1.057858
