19
Iteration:  3886
 C        -3.095898        -1.930816         0.016115
 C        -2.009465        -0.845644         0.640240
 C        -1.813985         0.489770        -0.145754
 C        -0.990150        -0.226443        -1.306314
 C        -0.597610        -1.138703         0.031498
 C         0.232970        -2.418804         0.185928
 C         0.270297        -0.034782         0.625710
 O         1.430981        -0.041759         1.167969
 O        -0.597626         1.047210         0.584451
 H        -2.826756        -2.948226        -0.248416
 H        -3.848248        -1.910367         0.867137
 H        -3.758531        -1.501279        -0.766729
 H        -2.026336        -0.757966         1.790504
 H        -2.622310         1.263320        -0.207874
 H        -1.580859        -0.788805        -1.998823
 H        -0.154930         0.410269        -1.710857
 H         1.423954        -2.221306        -0.183061
 H         0.198251        -2.793779         1.263647
 H        -0.402288        -3.239550        -0.363290
