19
Iteration:   118charge 0 multiplicity 1
 C        -2.926700        -1.431239         1.466784
 C        -1.656733        -0.684663         1.110997
 C        -1.772069         0.495377         0.103324
 C        -1.598286        -0.605211        -0.948061
 C        -0.637281        -1.253576         0.065445
 C        -0.049628        -2.641306        -0.168613
 C         0.394729        -0.064087         0.098871
 O         1.589171        -0.065168         0.058486
 O        -0.504670         1.128277         0.124254
 H        -2.955953        -1.802440         2.478922
 H        -3.872557        -0.792841         1.455087
 H        -3.157013        -2.335130         0.896137
 H        -1.181838        -0.357874         2.084347
 H        -2.537085         1.234015         0.249405
 H        -2.407222        -1.256630        -1.245631
 H        -1.064461        -0.269057        -1.861731
 H        -0.541241        -3.301141        -1.002991
 H         1.008992        -2.466914        -0.476165
 H         0.008999        -3.110170         0.746153
