19
Iteration:  2757charge 0 multiplicity 1
 C        -3.162579        -1.671682        -0.196748
 C        -2.173739        -0.667017         0.440517
 C        -1.659475         0.308884        -0.527208
 C        -0.738600        -0.665167        -1.185027
 C        -0.544408        -1.228263         0.351328
 C         0.068138        -2.601724         0.653367
 C         0.245824         0.080882         0.756808
 O         1.351890         0.250586         1.283625
 O        -0.570788         1.087021         0.310394
 H        -2.650411        -2.423729        -0.806603
 H        -3.860617        -2.295526         0.561332
 H        -3.893133        -1.134262        -0.873555
 H        -2.361863        -0.388065         1.453932
 H        -2.296700         1.186516        -1.021948
 H        -1.129495        -1.552004        -1.792047
 H         0.215172        -0.184369        -1.584663
 H        -0.458669        -3.456905         0.161361
 H         0.973661        -2.608982         0.238556
 H         0.228692        -2.867221         1.693495
