19
Iteration:  1489
 C        -3.247878        -1.503970         0.333468
 C        -1.939824        -0.756081         0.662118
 C        -1.691063         0.337649        -0.297759
 C        -0.998603        -0.609164        -1.336219
 C        -0.436894        -1.244338         0.109985
 C         0.073092        -2.709228         0.335398
 C         0.323865         0.027811         0.581933
 O         1.328259         0.246427         1.237232
 O        -0.485080         1.088242         0.207407
 H        -3.036769        -2.626123         0.189874
 H        -3.895151        -1.324975         1.159966
 H        -3.845978        -1.129932        -0.545304
 H        -1.963077        -0.590400         1.736654
 H        -2.569349         0.935517        -0.575774
 H        -1.828817        -1.177914        -1.693456
 H        -0.234224        -0.352464        -2.165820
 H        -0.585026        -3.232277         1.019101
 H         0.091596        -3.234799        -0.662474
 H         1.081616        -2.786847         0.795652
