19
Iteration:  1701charge 0 multiplicity 1
 C        -3.195351        -1.528862         0.349699
 C        -1.914553        -0.751030         0.516867
 C        -1.631087         0.425450        -0.476038
 C        -0.860330        -0.547799        -1.342103
 C        -0.479512        -1.234744         0.019458
 C         0.133267        -2.651466         0.485649
 C         0.192155        -0.019851         0.666116
 O         1.136274         0.039523         1.415284
 O        -0.505273         1.133730         0.123391
 H        -4.088045        -1.085128         0.956571
 H        -3.548378        -1.799441        -0.717993
 H        -3.038432        -2.496078         0.884936
 H        -1.920156        -0.406586         1.581860
 H        -2.214320         1.225325        -1.048506
 H        -1.544233        -1.235112        -1.921321
 H         0.020562        -0.112927        -1.862625
 H        -0.564695        -3.475102         0.361006
 H         1.130617        -2.750861         0.016313
 H         0.420757        -2.597811         1.532634
