19
Iteration:  2752
 C        -3.167151        -1.704199        -0.192545
 C        -2.142681        -0.702013         0.399353
 C        -1.673817         0.362309        -0.548240
 C        -0.756318        -0.658234        -1.167270
 C        -0.586858        -1.252817         0.330673
 C         0.057823        -2.576384         0.663370
 C         0.255827         0.073875         0.803608
 O         1.398583         0.208242         1.269678
 O        -0.600237         1.136140         0.316032
 H        -2.657197        -2.409897        -0.877608
 H        -3.684522        -2.282103         0.499449
 H        -3.937174        -1.200074        -0.791423
 H        -2.398344        -0.319145         1.419287
 H        -2.205282         1.089758        -1.054806
 H        -1.145105        -1.501401        -1.683385
 H         0.204916        -0.358952        -1.527107
 H        -0.461125        -3.436592         0.258582
 H         1.156157        -2.609044         0.200480
 H         0.196553        -2.645272         1.766991
