19
Iteration:  1383charge 0 multiplicity 1
 C        -3.151140        -1.545478         0.431805
 C        -1.892205        -0.696355         0.764794
 C        -1.683582         0.412746        -0.274659
 C        -1.125506        -0.596297        -1.261775
 C        -0.504898        -1.243515         0.121897
 C         0.030889        -2.667471         0.241022
 C         0.368086        -0.019492         0.530237
 O         1.389596         0.158091         1.164817
 O        -0.521590         1.070505         0.141536
 H        -4.012960        -1.531878         1.091937
 H        -3.602725        -1.127733        -0.476264
 H        -2.777897        -2.530446         0.185209
 H        -1.921806        -0.372900         1.842717
 H        -2.547024         0.988210        -0.531027
 H        -1.807862        -1.317289        -1.708665
 H        -0.564379        -0.165915        -2.086840
 H         1.072869        -2.639148        -0.043092
 H        -0.014805        -2.843670         1.367094
 H        -0.513500        -3.504720        -0.146541
