19
Iteration:  2377charge 0 multiplicity 1
 C        -3.130602        -1.697399         0.342290
 C        -1.983986        -0.655482         0.340472
 C        -1.516284         0.447395        -0.769480
 C        -0.512642        -0.651807        -1.291823
 C        -0.467062        -1.214384         0.153830
 C        -0.067684        -2.705292         0.372389
 C         0.153493         0.082187         0.774037
 O         0.969197         0.167356         1.638754
 O        -0.537954         1.116506         0.178521
 H        -3.108970        -2.347567        -0.583488
 H        -3.159776        -2.240854         1.388719
 H        -4.153391        -1.279654         0.427842
 H        -2.088712         0.109860         1.154149
 H        -1.890829         1.354066        -1.123400
 H        -1.016104        -1.432279        -1.982067
 H         0.460783        -0.544445        -1.655813
 H        -0.917398        -3.253343        -0.104901
 H         0.835576        -2.915841        -0.042782
 H         0.114948        -2.908905         1.432468
