19
Iteration:  2492
 C        -3.254356        -1.620539        -0.080409
 C        -1.999977        -0.775994         0.360394
 C        -1.596362         0.426179        -0.561136
 C        -0.553806        -0.689272        -1.290890
 C        -0.539660        -1.215323         0.229675
 C        -0.011825        -2.630033         0.760671
 C         0.202335         0.046627         0.759258
 O         1.293012         0.136027         1.254117
 O        -0.674732         1.197088         0.396727
 H        -3.288755        -1.751002        -1.180376
 H        -3.292599        -2.556909         0.436343
 H        -4.178644        -1.087547         0.281163
 H        -2.289986        -0.486092         1.335554
 H        -2.086740         1.137231        -1.255604
 H        -0.931081        -1.448448        -1.993705
 H         0.422788        -0.304995        -1.779180
 H        -0.475947        -3.375843         0.169838
 H         1.128190        -2.757815         0.679225
 H        -0.172606        -2.851818         1.810588
