19
Iteration:  4286
 C        -2.944550        -1.795977         0.428477
 C        -1.874911        -0.828789         0.583608
 C        -1.744641         0.440988        -0.399592
 C        -1.029944        -0.363610        -1.373874
 C        -0.553272        -1.147157        -0.127817
 C         0.264936        -2.387989        -0.052747
 C         0.206221         0.034485         0.693313
 O         1.145697        -0.171332         1.497169
 O        -0.584508         1.135088         0.494351
 H        -2.720315        -2.872515         0.643152
 H        -3.780601        -1.474807         1.053127
 H        -3.491011        -1.769750        -0.586370
 H        -1.886479        -0.487999         1.612104
 H        -2.509639         1.217458        -0.556015
 H        -1.687278        -1.058409        -1.945483
 H        -0.436490         0.210774        -2.139999
 H         0.846408        -2.626407        -1.038168
 H         0.915713        -2.336716         0.909617
 H        -0.432814        -3.311151         0.222789
