19
Iteration:  4674
 C        -3.115429        -1.787841        -0.061031
 C        -2.044703        -0.930317         0.579914
 C        -1.790917         0.447691        -0.097870
 C        -0.971866        -0.321766        -1.252700
 C        -0.516306        -1.175740         0.017149
 C         0.193886        -2.503132         0.181404
 C         0.291084         0.056363         0.710551
 O         1.403533         0.033819         1.173690
 O        -0.635329         1.073666         0.609485
 H        -3.063532        -2.748597         0.414612
 H        -4.106951        -1.375234         0.010601
 H        -2.836067        -2.042186        -1.103564
 H        -2.002934        -0.931867         1.647655
 H        -2.520453         1.230420        -0.353370
 H        -1.817738        -0.613969        -1.939378
 H        -0.110022         0.081987        -1.847986
 H        -0.305061        -3.464076         0.103295
 H         1.046111        -2.500673        -0.542524
 H         0.561852        -2.440430         1.207307
