19
Iteration:   289
 C        -3.016019        -1.461535         1.489062
 C        -1.752030        -0.756555         1.022887
 C        -1.777466         0.428843         0.015770
 C        -1.507814        -0.532518        -1.155171
 C        -0.674430        -1.230582         0.048625
 C         0.033471        -2.550104        -0.012453
 C         0.348540        -0.082180         0.115685
 O         1.548021        -0.069220         0.302170
 O        -0.408013         1.122540         0.017630
 H        -3.690823        -1.962598         0.778416
 H        -2.597030        -2.175854         2.278708
 H        -3.637670        -0.768010         2.077816
 H        -1.260857        -0.529677         1.974413
 H        -2.593157         1.105176         0.032042
 H        -2.363897        -1.132779        -1.535189
 H        -0.771896        -0.079950        -1.908994
 H         0.926504        -2.503921        -0.664511
 H         0.284124        -2.858180         1.032239
 H        -0.686768        -3.397896        -0.482020
