19
Iteration:  1022
 C        -3.139333        -1.543738         0.750944
 C        -1.814540        -0.775754         0.884070
 C        -1.706170         0.479960        -0.106022
 C        -1.353638        -0.524125        -1.242451
 C        -0.524675        -1.235355         0.053534
 C         0.050480        -2.676071         0.158513
 C         0.323590        -0.023257         0.412889
 O         1.444753         0.058542         0.844101
 O        -0.437156         1.131729         0.125509
 H        -3.239475        -2.214928         1.669815
 H        -4.071402        -0.986246         0.609468
 H        -2.972398        -2.268494        -0.108614
 H        -1.506098        -0.465428         1.892275
 H        -2.520306         1.165308        -0.222927
 H        -2.115820        -1.128177        -1.805423
 H        -0.673065        -0.039046        -1.951735
 H         0.124686        -3.046682        -0.878064
 H         1.100818        -2.735804         0.690564
 H        -0.578925        -3.403076         0.676580
