19
Iteration:  2058
 C        -2.987531        -1.772253        -0.044810
 C        -2.150752        -0.675360         0.434982
 C        -1.517102         0.490261        -0.605547
 C        -0.736342        -0.617220        -1.271489
 C        -0.670764        -1.179988         0.201582
 C         0.010161        -2.444431         0.649776
 C         0.168076        -0.022266         0.776217
 O         1.151616        -0.003722         1.453427
 O        -0.436972         1.130116         0.217484
 H        -2.625345        -2.314803        -0.946885
 H        -3.102360        -2.584858         0.745202
 H        -4.046892        -1.463168        -0.108703
 H        -2.539961        -0.215567         1.357140
 H        -2.199908         1.331454        -1.002396
 H        -1.121483        -1.272805        -1.993545
 H         0.224346        -0.171698        -1.640981
 H        -0.779224        -3.162429         0.563616
 H         0.834464        -2.826494        -0.042663
 H         0.217647        -2.346787         1.693673
