19
Iteration:  4923
 C        -3.014859        -1.796721        -0.031109
 C        -1.950844        -0.891066         0.601876
 C        -1.766606         0.449339        -0.151441
 C        -0.966560        -0.339264        -1.215867
 C        -0.514893        -1.138485         0.017481
 C         0.154100        -2.511315         0.158901
 C         0.224271        -0.045393         0.705577
 O         1.356528         0.009022         1.179785
 O        -0.668876         1.159441         0.589347
 H        -3.130818        -2.727937         0.520125
 H        -3.971842        -1.270922         0.238553
 H        -3.102643        -1.943778        -1.142583
 H        -2.064228        -0.777370         1.687598
 H        -2.580200         1.134519        -0.420239
 H        -1.375453        -1.057290        -1.912268
 H        -0.169681         0.082562        -1.810011
 H        -0.530216        -3.265684        -0.253513
 H         1.140549        -2.585689        -0.384162
 H         0.492018        -2.667892         1.200754
