19
Iteration:  4326charge 0 multiplicity 1
 C        -3.096626        -1.837803         0.313523
 C        -1.937009        -0.884708         0.604822
 C        -1.746541         0.458896        -0.320811
 C        -1.001090        -0.331588        -1.313022
 C        -0.490826        -1.153127        -0.002333
 C         0.195642        -2.529141        -0.088802
 C         0.296558        -0.041395         0.714165
 O         1.207392         0.048310         1.456133
 O        -0.585982         1.124738         0.444924
 H        -2.803943        -2.869324         0.120310
 H        -3.837425        -1.661012         1.091856
 H        -3.440942        -1.494919        -0.700235
 H        -1.839724        -0.713013         1.708242
 H        -2.481678         1.248385        -0.678867
 H        -1.640963        -1.020571        -1.839244
 H        -0.276008         0.254752        -1.800519
 H         0.517171        -2.831664        -1.016433
 H         1.118693        -2.229094         0.356820
 H        -0.217572        -3.288120         0.507787
