19
Iteration:   603charge 0 multiplicity 1
 C        -3.147735        -1.438636         1.124678
 C        -1.807850        -0.707646         0.905975
 C        -1.758652         0.402321        -0.147655
 C        -1.330608        -0.654338        -1.179100
 C        -0.571853        -1.201618         0.084821
 C         0.016438        -2.531215         0.116079
 C         0.394226        -0.061348         0.312752
 O         1.576044         0.051877         0.467852
 O        -0.505554         1.029314         0.176084
 H        -3.048631        -2.376675         1.683768
 H        -3.899158        -0.770437         1.622113
 H        -3.724961        -1.652539         0.201744
 H        -1.306752        -0.463744         1.874451
 H        -2.543135         1.138345        -0.207866
 H        -2.133783        -1.299122        -1.506772
 H        -0.764618        -0.439825        -2.074974
 H        -0.716942        -3.296840        -0.021563
 H         0.728359        -2.704901        -0.633157
 H         0.456777        -2.786808         1.156549
