19
Iteration:   361charge 0 multiplicity 1
 C        -3.010755        -1.609813         1.279557
 C        -1.764472        -0.748405         1.110284
 C        -1.750425         0.492021        -0.034637
 C        -1.447346        -0.563961        -1.179887
 C        -0.644387        -1.194963         0.094084
 C        -0.131922        -2.607206         0.166026
 C         0.425943        -0.085966         0.223920
 O         1.609784         0.031613         0.233302
 O        -0.430586         1.146601         0.011654
 H        -3.923790        -0.948380         1.482748
 H        -3.199609        -2.276088         0.475266
 H        -2.930287        -2.232277         2.203959
 H        -1.450147        -0.480731         2.144098
 H        -2.542728         1.299641        -0.202425
 H        -2.413261        -1.010912        -1.402918
 H        -0.864037        -0.148059        -1.949670
 H        -0.793584        -3.208287        -0.450284
 H         0.859457        -2.638996        -0.272321
 H        -0.022311        -3.049349         1.134508
