19
Iteration:  4647
 C        -3.103390        -1.767412        -0.022215
 C        -2.028901        -0.889658         0.580876
 C        -1.691297         0.407329        -0.190048
 C        -0.844538        -0.337157        -1.204078
 C        -0.437449        -1.156198         0.169780
 C         0.170203        -2.492272         0.086899
 C         0.171983         0.010060         0.720280
 O         1.342150         0.106929         1.011417
 O        -0.705836         0.990017         0.735064
 H        -3.324654        -2.666451         0.637496
 H        -4.023522        -1.065521         0.008656
 H        -2.863335        -2.132010        -1.040463
 H        -2.205371        -0.536026         1.715463
 H        -2.340248         1.222253        -0.535307
 H        -1.516706        -0.827450        -1.898051
 H        -0.072019         0.017985        -1.880829
 H        -0.380636        -3.314348        -0.379489
 H         1.147169        -2.387981        -0.358236
 H         0.243727        -2.821895         1.146347
