19
Iteration:  4403
 C        -3.102750        -1.891340         0.010490
 C        -1.971162        -0.907320         0.546110
 C        -1.751234         0.497607        -0.230970
 C        -0.868955        -0.253790        -1.163841
 C        -0.550522        -1.123293         0.025273
 C         0.159910        -2.485760         0.186795
 C         0.265910        -0.019897         0.677322
 O         1.368463         0.056783         1.061865
 O        -0.695501         1.012886         0.722225
 H        -3.206346        -2.751873         0.658113
 H        -4.020251        -1.365016        -0.150359
 H        -2.894443        -2.180695        -1.072852
 H        -2.013575        -0.841330         1.677370
 H        -2.478214         1.342214        -0.299655
 H        -1.526133        -0.689899        -1.936727
 H        -0.114247         0.269103        -1.695264
 H        -0.533726        -3.115981        -0.237880
 H         1.133367        -2.592068        -0.250931
 H         0.396561        -2.647624         1.202968
