19
Iteration:  2973charge 0 multiplicity 1
 C        -3.144730        -1.807143        -0.036336
 C        -2.048641        -0.761694         0.417110
 C        -1.646824         0.445081        -0.483406
 C        -0.691107        -0.452730        -1.325007
 C        -0.554354        -1.171606         0.217274
 C         0.075699        -2.453251         0.687222
 C         0.226641        -0.019906         0.721875
 O         1.346513         0.003575         1.209817
 O        -0.682250         1.097504         0.416059
 H        -3.778472        -1.491517        -0.800320
 H        -2.705973        -2.719547        -0.383353
 H        -3.802653        -2.135128         0.746135
 H        -2.316317        -0.379700         1.447369
 H        -2.280795         1.310917        -0.880716
 H        -1.261785        -0.971148        -2.184814
 H         0.190017        -0.010713        -1.769161
 H        -0.477384        -3.352014         0.269658
 H         1.181976        -2.333043         0.484679
 H        -0.290416        -2.543533         1.718440
