19
Iteration:   146
 C        -2.931820        -1.512599         1.578452
 C        -1.740028        -0.698084         1.136718
 C        -1.761889         0.409821        -0.034699
 C        -1.505306        -0.450700        -1.163153
 C        -0.667276        -1.204350         0.046375
 C        -0.068343        -2.558136        -0.053810
 C         0.360130        -0.075367         0.168700
 O         1.555758        -0.100096        -0.013235
 O        -0.441399         1.062417         0.226582
 H        -2.583930        -2.198570         2.408363
 H        -3.794068        -0.978410         1.956754
 H        -3.314747        -2.197128         0.784614
 H        -1.331714        -0.234182         2.018489
 H        -2.486860         1.237055         0.071626
 H        -2.383343        -0.902372        -1.726280
 H        -0.853206        -0.103472        -1.993077
 H        -0.725743        -3.352405         0.107170
 H         0.409129        -2.685655        -1.025539
 H         0.708181        -2.578659         0.833343
