19
Iteration:  1387charge 0 multiplicity 1
 C        -3.130748        -1.550119         0.440739
 C        -1.873335        -0.703221         0.776974
 C        -1.731177         0.412661        -0.279081
 C        -1.093609        -0.574329        -1.264435
 C        -0.525981        -1.246365         0.062235
 C         0.029988        -2.639883         0.290064
 C         0.368041        -0.019789         0.528239
 O         1.383599         0.141746         1.183274
 O        -0.516959         1.064781         0.134170
 H        -3.911662        -1.608383         1.223739
 H        -3.569063        -1.071199        -0.523514
 H        -2.781500        -2.543188         0.081985
 H        -1.921495        -0.369878         1.797310
 H        -2.573794         1.079750        -0.562047
 H        -1.820141        -1.364296        -1.627711
 H        -0.565166        -0.170997        -2.111685
 H         1.031333        -2.793610        -0.227926
 H         0.064900        -2.814266         1.311625
 H        -0.640115        -3.453986        -0.060160
