19
Iteration:  2210
 C        -2.976070        -1.710441        -0.030096
 C        -1.931886        -0.784079         0.490542
 C        -1.586741         0.390919        -0.482424
 C        -0.760753        -0.574015        -1.295072
 C        -0.526767        -1.201327         0.160859
 C        -0.154567        -2.598313         0.696801
 C         0.218417         0.062443         0.664858
 O         1.101779         0.134465         1.477551
 O        -0.461568         1.154344         0.140559
 H        -2.712374        -2.227186        -0.983653
 H        -3.335791        -2.491912         0.732884
 H        -3.944083        -1.171197        -0.302952
 H        -2.065360        -0.440482         1.546985
 H        -2.257633         1.133440        -1.077056
 H        -1.465666        -1.032217        -1.918493
 H         0.108150        -0.301085        -1.917034
 H        -0.419801        -3.341828         0.014341
 H         0.929811        -2.637234         1.036369
 H        -0.771204        -2.789089         1.559539
