19
Iteration:  3416
 C        -3.185003        -1.734120         0.103590
 C        -1.985369        -0.888513         0.525897
 C        -1.652265         0.419647        -0.361141
 C        -0.766077        -0.466482        -1.177252
 C        -0.558732        -1.218896         0.125886
 C         0.020672        -2.574832         0.217238
 C         0.232066         0.004947         0.745167
 O         1.375929         0.186434         1.103564
 O        -0.626324         1.118080         0.533436
 H        -3.432563        -1.672033        -0.970448
 H        -2.937946        -2.732186         0.426369
 H        -4.056276        -1.489704         0.753439
 H        -2.046887        -0.607329         1.578019
 H        -2.387534         1.167712        -0.718719
 H        -1.378383        -1.259805        -1.695817
 H         0.058514         0.073814        -1.630085
 H         1.031344        -2.389451         0.603929
 H        -0.488677        -2.980121         1.089324
 H         0.069306        -3.141396        -0.734130
