19
Iteration:  1028
 C        -3.126173        -1.552547         0.726572
 C        -1.795360        -0.773200         0.896397
 C        -1.725943         0.494039        -0.073159
 C        -1.292662        -0.537806        -1.237958
 C        -0.598320        -1.198666         0.095308
 C         0.074870        -2.637494         0.142422
 C         0.326044        -0.006458         0.415025
 O         1.444058         0.028134         0.827415
 O        -0.433741         1.114901         0.100459
 H        -3.419013        -2.233652         1.504349
 H        -4.074386        -0.966684         0.719010
 H        -3.136153        -2.073643        -0.222375
 H        -1.604753        -0.712735         2.003318
 H        -2.576766         1.208055        -0.191486
 H        -1.966992        -1.331272        -1.563873
 H        -0.725681        -0.163870        -2.113263
 H         0.063960        -3.099767        -0.854146
 H         1.026743        -2.610985         0.503367
 H        -0.400775        -3.415480         0.816416
