19
Iteration:  3218
 C        -3.155267        -1.665332        -0.178100
 C        -2.076589        -0.848710         0.556370
 C        -1.665616         0.412292        -0.294051
 C        -0.856838        -0.487230        -1.206215
 C        -0.569662        -1.232506         0.154986
 C         0.171326        -2.483676         0.484396
 C         0.214572        -0.036430         0.725990
 O         1.364638         0.111783         1.144854
 O        -0.608753         1.077232         0.472886
 H        -3.930450        -1.850472         0.621276
 H        -3.680330        -1.121535        -0.943353
 H        -2.917978        -2.706675        -0.431004
 H        -2.204539        -0.744087         1.637878
 H        -2.316735         1.174482        -0.620573
 H        -1.287830        -1.109174        -2.000938
 H        -0.024464         0.015350        -1.686755
 H         0.028303        -3.211736        -0.393602
 H         1.275478        -2.127865         0.522254
 H        -0.093485        -2.905535         1.539899
