19
Iteration:  3744charge 0 multiplicity 1
 C        -3.063876        -1.833720         0.121588
 C        -1.959075        -0.852480         0.533854
 C        -1.700112         0.427359        -0.121461
 C        -0.966475        -0.354777        -1.313443
 C        -0.543134        -1.161285        -0.041755
 C         0.149615        -2.469216         0.197869
 C         0.211097         0.019461         0.684176
 O         1.245810        -0.017265         1.265721
 O        -0.525368         1.132691         0.458647
 H        -3.683889        -1.584941        -0.694957
 H        -2.742044        -2.874351         0.079401
 H        -3.810802        -1.853751         0.895870
 H        -1.957310        -0.836757         1.646915
 H        -2.515009         1.163211        -0.209926
 H        -1.627256        -0.845068        -1.965471
 H        -0.205985         0.342890        -1.726391
 H         0.917500        -2.522861        -0.578066
 H         0.709414        -2.444309         1.108200
 H        -0.461886        -3.356590         0.172244
