19
Iteration:  3546charge 0 multiplicity 1
 C        -3.144888        -1.653239         0.321782
 C        -1.992500        -0.774474         0.534587
 C        -1.682974         0.366390        -0.355151
 C        -0.921278        -0.525291        -1.420546
 C        -0.375418        -1.181014        -0.004002
 C         0.243091        -2.559366        -0.107431
 C         0.244849         0.039517         0.742519
 O         1.137299         0.087708         1.542292
 O        -0.611910         1.097865         0.512792
 H        -3.378208        -2.143247         1.324919
 H        -4.102531        -1.118996         0.179279
 H        -3.051423        -2.505976        -0.457299
 H        -1.878201        -0.457920         1.609805
 H        -2.451350         1.121852        -0.568721
 H        -1.323449        -1.335146        -2.148494
 H        -0.060380         0.021831        -1.958107
 H         0.759092        -2.696674        -1.077480
 H         0.885672        -2.764580         0.728954
 H        -0.574049        -3.298582         0.004918
