19
Iteration:  1459
 C        -3.122627        -1.657187         0.503507
 C        -1.979034        -0.679624         0.667202
 C        -1.644898         0.434132        -0.480699
 C        -0.877486        -0.631981        -1.323913
 C        -0.588912        -1.148544         0.178988
 C        -0.004612        -2.522685         0.278393
 C         0.255454        -0.010646         0.608068
 O         1.308267         0.044113         1.195856
 O        -0.512049         1.095850         0.218540
 H        -2.779077        -2.667807         0.786219
 H        -3.908754        -1.353592         1.185550
 H        -3.600662        -1.652612        -0.469654
 H        -1.890148        -0.369331         1.741847
 H        -2.352415         1.107965        -0.902920
 H        -1.674992        -1.190504        -1.865881
 H         0.039909        -0.521177        -1.927471
 H        -0.728996        -3.330732         0.086920
 H         0.800101        -2.595242        -0.583865
 H         0.589270        -2.725778         1.179856
