19
Iteration:  3147
 C        -3.018244        -1.772493         0.092603
 C        -2.012941        -0.762486         0.538102
 C        -1.634701         0.405245        -0.377512
 C        -0.865166        -0.558566        -1.283536
 C        -0.535238        -1.149889         0.134075
 C         0.031183        -2.557504         0.248444
 C         0.232906        -0.004700         0.727464
 O         1.149997         0.166089         1.493835
 O        -0.486517         1.089641         0.310264
 H        -3.416537        -2.455581         0.893908
 H        -3.959229        -1.315251        -0.398923
 H        -2.512565        -2.266896        -0.822970
 H        -2.122273        -0.374741         1.595435
 H        -2.226796         1.168343        -1.013976
 H        -1.500944        -1.039782        -2.098334
 H         0.032906        -0.007631        -1.706521
 H        -0.854822        -3.163199         0.311743
 H         0.588007        -2.873781        -0.608776
 H         0.667909        -2.617029         1.086452
