19
Iteration:  1742
 C        -3.004878        -1.666681         0.115723
 C        -2.023867        -0.625031         0.572023
 C        -1.592099         0.444343        -0.526058
 C        -0.882260        -0.717832        -1.235156
 C        -0.558319        -1.214393         0.209650
 C        -0.097411        -2.622631         0.410231
 C         0.242574         0.036483         0.746037
 O         1.306591         0.210639         1.334680
 O        -0.480298         1.086742         0.221161
 H        -3.645927        -1.912051         1.065661
 H        -3.830178        -1.269160        -0.526869
 H        -2.567015        -2.580806        -0.274854
 H        -2.099685        -0.425110         1.645041
 H        -2.339828         1.054040        -0.971104
 H        -1.778278        -1.285126        -1.708828
 H        -0.081443        -0.580938        -1.940170
 H        -0.920319        -3.183451         0.836269
 H         0.015798        -3.167665        -0.586750
 H         0.717307        -2.669329         1.104481
