19
Iteration:  3806charge 0 multiplicity 1
 C        -3.137520        -1.827263         0.436735
 C        -1.950802        -0.846627         0.636313
 C        -1.715960         0.474903        -0.288099
 C        -0.928199        -0.385863        -1.338834
 C        -0.416728        -1.159633        -0.040088
 C         0.195333        -2.543981        -0.241035
 C         0.220870        -0.003161         0.764690
 O         1.123999         0.044019         1.581357
 O        -0.551464         1.107464         0.343478
 H        -2.870354        -2.441608        -0.469444
 H        -3.443698        -2.433943         1.284070
 H        -3.823815        -0.976304         0.153239
 H        -1.786228        -0.539583         1.680543
 H        -2.471064         1.253353        -0.416243
 H        -1.443199        -1.130425        -2.017543
 H        -0.217746         0.194251        -1.909591
 H         1.053646        -2.265311        -1.024978
 H         0.799482        -2.947493         0.629669
 H        -0.482290        -3.299836        -0.801272
