19
Iteration:  1968charge 0 multiplicity 1
 C        -3.219463        -1.539843        -0.090918
 C        -2.042239        -0.707883         0.469509
 C        -1.522623         0.337422        -0.571559
 C        -0.884689        -0.784571        -1.221943
 C        -0.466935        -1.155903         0.249574
 C         0.131118        -2.583301         0.520541
 C         0.255539         0.056706         0.796603
 O         1.169398         0.181857         1.570005
 O        -0.504332         1.102466         0.139168
 H        -3.200036        -1.747968        -1.212478
 H        -3.209853        -2.528525         0.381961
 H        -4.295989        -1.171174         0.088886
 H        -2.161381        -0.263479         1.446689
 H        -2.170422         1.127633        -0.876577
 H        -1.478959        -1.667282        -1.583131
 H        -0.193740        -0.609840        -1.964748
 H         0.245684        -3.117685        -0.391527
 H         1.110565        -2.550756         0.946438
 H        -0.605870        -3.144670         1.049353
