19
Iteration:  4864
 C        -3.089772        -1.763446        -0.017565
 C        -1.969685        -0.878971         0.632092
 C        -1.648229         0.373643        -0.228182
 C        -0.822861        -0.334361        -1.244577
 C        -0.473479        -1.180673         0.132235
 C         0.077088        -2.566541         0.134053
 C         0.202331         0.011009         0.754086
 O         1.347929         0.164480         1.012215
 O        -0.732689         1.077048         0.740624
 H        -2.897699        -2.791802         0.305302
 H        -4.017909        -1.385579         0.283259
 H        -2.957615        -1.840511        -1.040960
 H        -2.159968        -0.723392         1.653817
 H        -2.438158         1.068768        -0.548856
 H        -1.449592        -1.001850        -1.858708
 H         0.064520         0.140284        -1.724450
 H        -0.692632        -3.200479        -0.408592
 H         0.838063        -2.554679        -0.643788
 H         0.247766        -3.158396         1.051582
