19
Iteration:  4575
 C        -2.909772        -1.797598         0.155067
 C        -1.922941        -0.814408         0.585544
 C        -1.768597         0.449688        -0.244106
 C        -1.009081        -0.356770        -1.304409
 C        -0.499005        -1.119904        -0.021680
 C         0.183184        -2.569699         0.031377
 C         0.152535         0.058410         0.700221
 O         1.208235        -0.009063         1.377764
 O        -0.560616         1.104863         0.522094
 H        -2.788006        -2.759579         0.615677
 H        -3.760821        -1.467764         0.711403
 H        -3.088400        -1.916289        -0.899279
 H        -1.965643        -0.614571         1.604958
 H        -2.592244         1.180708        -0.191183
 H        -1.796332        -0.943956        -1.863579
 H        -0.370247        -0.032158        -2.162377
 H        -0.042587        -3.195035        -0.897055
 H         1.303251        -2.472934         0.091495
 H        -0.291443        -3.165714         0.824555
