19
Iteration:  1395charge 0 multiplicity 1
 C        -3.073813        -1.571102         0.437932
 C        -1.868280        -0.733667         0.752632
 C        -1.786607         0.397311        -0.297221
 C        -1.083558        -0.588133        -1.282192
 C        -0.519078        -1.195991        -0.014872
 C         0.017199        -2.590074         0.347583
 C         0.325576        -0.007194         0.532989
 O         1.339222         0.096562         1.192619
 O        -0.470723         1.078405         0.149579
 H        -3.574612        -1.758003         1.364929
 H        -3.722158        -1.054202        -0.341285
 H        -2.934051        -2.576299         0.055851
 H        -1.700514        -0.394233         1.807021
 H        -2.411911         1.226164        -0.511716
 H        -1.843957        -1.296353        -1.684526
 H        -0.404491        -0.234649        -1.999686
 H         0.704865        -3.005119        -0.364626
 H         0.391944        -2.709955         1.382993
 H        -0.843100        -3.190084         0.127793
