19
Iteration:  2903
 C        -3.188156        -1.633305         0.065704
 C        -1.977444        -0.796816         0.500987
 C        -1.560886         0.388267        -0.514690
 C        -0.763656        -0.653928        -1.254125
 C        -0.455163        -1.258747         0.166670
 C         0.072648        -2.675777         0.393537
 C         0.211425         0.075438         0.736812
 O         1.095962         0.317043         1.559245
 O        -0.513093         1.116088         0.170884
 H        -4.120987        -1.486876         0.703489
 H        -3.500555        -1.282456        -0.926971
 H        -3.049900        -2.723110        -0.081703
 H        -2.114601        -0.562577         1.580974
 H        -2.358739         0.955525        -0.877800
 H        -1.106571        -1.451209        -1.920842
 H         0.146643        -0.255688        -1.835939
 H        -0.693475        -3.373452         0.244441
 H         0.953244        -3.014596        -0.120027
 H         0.140366        -2.726337         1.464789
