19
Iteration:  3445charge 0 multiplicity 1
 C        -3.150838        -1.722724         0.016212
 C        -2.045283        -0.829819         0.611210
 C        -1.628461         0.412577        -0.283070
 C        -0.754187        -0.371022        -1.175221
 C        -0.485632        -1.235701         0.208570
 C        -0.019053        -2.677989         0.240763
 C         0.300125         0.021399         0.691086
 O         1.433528         0.240056         1.045046
 O        -0.737037         1.066188         0.547607
 H        -2.675259        -2.384779        -0.789749
 H        -3.378743        -2.488286         0.806263
 H        -4.177123        -1.338934        -0.254148
 H        -2.224049        -0.455221         1.693736
 H        -2.394139         1.086044        -0.668005
 H        -1.316424        -1.122570        -1.902568
 H        -0.018454         0.109271        -1.843280
 H         1.065049        -2.669524         0.300901
 H        -0.510004        -3.138557         1.111338
 H        -0.424048        -3.310427        -0.599729
