19
Iteration:  3717charge 0 multiplicity 1
 C        -3.089759        -1.749025        -0.002678
 C        -2.001756        -0.888517         0.642866
 C        -1.661660         0.401792        -0.216797
 C        -0.976066        -0.417035        -1.189975
 C        -0.477260        -1.183109         0.118447
 C         0.055309        -2.590276         0.154356
 C         0.287055         0.050179         0.711928
 O         1.433342         0.181508         1.134165
 O        -0.676158         1.084007         0.555787
 H        -3.694296        -1.224359        -0.811415
 H        -2.707031        -2.671656        -0.487475
 H        -3.916307        -2.054445         0.688245
 H        -2.077352        -0.828899         1.731287
 H        -2.449127         1.078192        -0.535350
 H        -1.731976        -0.966138        -1.820554
 H        -0.231546         0.156050        -1.674686
 H         0.956682        -2.552279        -0.535779
 H         0.463199        -2.970834         1.155439
 H        -0.665935        -3.357289        -0.310243
