19
Iteration:  1739
 C        -3.035709        -1.660411         0.134022
 C        -2.002476        -0.651618         0.582346
 C        -1.600130         0.443389        -0.497561
 C        -0.886809        -0.724616        -1.259343
 C        -0.551234        -1.196031         0.164308
 C        -0.121450        -2.584662         0.406038
 C         0.257389         0.033290         0.746920
 O         1.307219         0.205835         1.356504
 O        -0.489843         1.076367         0.216112
 H        -3.625084        -1.834368         0.990260
 H        -3.758443        -1.332133        -0.534410
 H        -2.524141        -2.551424        -0.173713
 H        -2.022809        -0.419828         1.648126
 H        -2.286219         1.040215        -1.087042
 H        -1.657909        -1.341846        -1.722700
 H        -0.060225        -0.661016        -1.957328
 H        -0.917373        -3.285602         0.787233
 H         0.034447        -3.118803        -0.544058
 H         0.717586        -2.572744         1.157551
