19
Iteration:  2019charge 0 multiplicity 1
 C        -3.192702        -1.592106         0.034243
 C        -2.074645        -0.727327         0.319921
 C        -1.576398         0.350518        -0.609072
 C        -0.588587        -0.635374        -1.334117
 C        -0.444841        -1.186558         0.206339
 C        -0.009315        -2.623981         0.598375
 C         0.198026        -0.023667         0.795026
 O         1.236569         0.219194         1.390161
 O        -0.640630         1.087776         0.393176
 H        -3.161188        -2.143373        -0.901054
 H        -3.491402        -2.238124         0.873207
 H        -4.022812        -0.872189        -0.208027
 H        -2.240270        -0.338313         1.344854
 H        -2.159032         1.000149        -1.229452
 H        -1.087509        -1.327525        -2.073591
 H         0.462293        -0.361297        -1.656769
 H        -0.494918        -3.496287         0.008599
 H         1.067840        -2.755014         0.592207
 H        -0.460549        -2.772911         1.638966
