19
Iteration:  2968charge 0 multiplicity 1
 C        -3.142518        -1.765196        -0.054988
 C        -2.106379        -0.741924         0.400703
 C        -1.603537         0.438812        -0.460597
 C        -0.669460        -0.516804        -1.315909
 C        -0.538719        -1.175695         0.237310
 C         0.104260        -2.478033         0.662907
 C         0.233150        -0.001835         0.686149
 O         1.292408         0.007908         1.190533
 O        -0.682038         1.113415         0.450706
 H        -3.990600        -1.472558        -0.821959
 H        -2.553914        -2.666767        -0.406671
 H        -3.689832        -2.199777         0.864522
 H        -2.344350        -0.336584         1.385340
 H        -2.257122         1.211083        -0.755233
 H        -1.258781        -1.061116        -2.062856
 H         0.100128         0.124067        -1.864930
 H        -0.394930        -3.354154         0.317463
 H         1.157778        -2.445954         0.524822
 H        -0.171009        -2.513521         1.737839
