19
Iteration:  1248charge 0 multiplicity 1
 C        -3.137130        -1.608407         0.612183
 C        -1.872680        -0.722638         0.828829
 C        -1.665471         0.468430        -0.264237
 C        -1.143378        -0.630225        -1.227470
 C        -0.582879        -1.213639         0.144327
 C         0.008180        -2.580835         0.130230
 C         0.278216        -0.000854         0.489376
 O         1.361454         0.077882         0.965238
 O        -0.405637         1.105136         0.185890
 H        -3.503606        -1.639927        -0.411106
 H        -3.002004        -2.617387         0.939662
 H        -3.931896        -1.304818         1.299714
 H        -1.792448        -0.238903         1.827367
 H        -2.491878         1.152874        -0.446408
 H        -1.790773        -1.329791        -1.838351
 H        -0.256287        -0.276433        -1.803133
 H        -0.301096        -3.276236        -0.697105
 H         1.087227        -2.412028         0.108562
 H        -0.232898        -3.186000         1.073658
