19
Iteration:  1641
 C        -3.221187        -1.532464         0.261656
 C        -2.014542        -0.671775         0.649383
 C        -1.602144         0.431014        -0.453741
 C        -0.927328        -0.727956        -1.261111
 C        -0.562182        -1.245266         0.163777
 C         0.169613        -2.693909         0.295699
 C         0.241094        -0.010688         0.705936
 O         1.225283         0.149746         1.349542
 O        -0.459558         1.160705         0.168652
 H        -3.802481        -1.336455        -0.740317
 H        -2.903533        -2.572936         0.225285
 H        -3.912994        -1.528873         1.160678
 H        -2.180364        -0.278520         1.646762
 H        -2.202975         1.259535        -0.822123
 H        -1.611535        -1.314507        -1.855497
 H        -0.077993        -0.420046        -1.943541
 H         0.382488        -2.967702        -0.779787
 H         1.164352        -2.534441         0.690495
 H        -0.418190        -3.516654         0.834519
