19
Iteration:  4411charge 0 multiplicity 1
 C        -3.032003        -1.878245         0.033370
 C        -2.017017        -0.900468         0.508696
 C        -1.756426         0.489856        -0.194342
 C        -0.931312        -0.288071        -1.281438
 C        -0.523695        -1.135903         0.045714
 C         0.186875        -2.488564         0.172982
 C         0.180629         0.043494         0.662470
 O         1.386585         0.006869         1.065142
 O        -0.662432         1.062450         0.797115
 H        -3.340028        -2.697884         0.646639
 H        -3.974929        -1.325834        -0.169059
 H        -2.721320        -2.241789        -0.930866
 H        -2.263395        -0.808446         1.581598
 H        -2.534996         1.295635        -0.311910
 H        -1.413351        -0.691215        -2.229735
 H         0.045415         0.214843        -1.614780
 H        -0.578054        -3.378176         0.044512
 H         1.153992        -2.671563        -0.397122
 H         0.440607        -2.571716         1.270764
