19
Iteration:  1047
 C        -3.185069        -1.510107         0.646746
 C        -1.904257        -0.745119         0.897801
 C        -1.740148         0.394148        -0.131246
 C        -1.305278        -0.680138        -1.091517
 C        -0.543877        -1.181961         0.116127
 C         0.112829        -2.446065         0.102801
 C         0.346597        -0.026603         0.415290
 O         1.493554        -0.041771         0.767739
 O        -0.440482         1.088841         0.177539
 H        -3.137439        -2.420289         1.200753
 H        -4.050072        -0.976032         1.120729
 H        -3.376758        -1.712695        -0.368850
 H        -1.795468        -0.327639         1.887538
 H        -2.539769         1.173747        -0.339488
 H        -2.061857        -1.183637        -1.639591
 H        -0.522548        -0.282655        -1.813327
 H        -0.286647        -3.083269        -0.695477
 H         1.230977        -2.284371         0.027226
 H         0.020152        -2.973995         1.048106
