19
Iteration:  3538charge 0 multiplicity 1
 C        -3.136440        -1.694949         0.295889
 C        -1.928929        -0.809693         0.568118
 C        -1.731131         0.427564        -0.393510
 C        -0.928606        -0.509830        -1.364135
 C        -0.438339        -1.121385        -0.015988
 C         0.266502        -2.531585        -0.057690
 C         0.227326         0.008248         0.746088
 O         1.178235         0.042250         1.510805
 O        -0.626452         1.061450         0.492584
 H        -3.271874        -2.275798         1.177899
 H        -3.954914        -0.947818         0.199673
 H        -3.237023        -2.269826        -0.594579
 H        -1.987505        -0.537333         1.588691
 H        -2.359165         1.209159        -0.833929
 H        -1.454565        -1.108535        -2.005505
 H        -0.027544        -0.168451        -1.916495
 H         0.833307        -2.649575        -0.957633
 H         0.823322        -2.561481         0.832642
 H        -0.475258        -3.233643         0.169017
