19
Iteration:  4899charge 0 multiplicity 1
 C        -3.183425        -1.813026        -0.104779
 C        -2.004520        -0.931292         0.583168
 C        -1.697592         0.392114        -0.137529
 C        -0.913593        -0.263189        -1.249743
 C        -0.520772        -1.190596         0.107312
 C         0.060291        -2.608697         0.220277
 C         0.305535         0.017649         0.736203
 O         1.429890         0.266257         1.084664
 O        -0.624694         1.021815         0.668070
 H        -3.033770        -2.774357         0.349886
 H        -4.231920        -1.610412         0.132522
 H        -3.155837        -1.924273        -1.161405
 H        -2.047031        -0.888159         1.628812
 H        -2.409286         1.173194        -0.402990
 H        -1.501300        -0.781356        -2.027924
 H        -0.073302         0.172732        -1.782210
 H        -0.742554        -3.279808        -0.184647
 H         0.890177        -2.674563        -0.538106
 H         0.560719        -2.911913         1.142537
