19
Iteration:  1534charge 0 multiplicity 1
 C        -3.258197        -1.654565         0.229841
 C        -2.003242        -0.760012         0.624448
 C        -1.642612         0.461281        -0.346274
 C        -0.959319        -0.668521        -1.207865
 C        -0.519425        -1.142360         0.214185
 C         0.163132        -2.505042         0.391914
 C         0.273106         0.050893         0.603203
 O         1.353099        -0.050479         1.100108
 O        -0.552798         1.187370         0.267966
 H        -2.776026        -2.626783        -0.114764
 H        -3.940854        -1.759672         1.053215
 H        -3.877111        -1.211518        -0.565286
 H        -1.933339        -0.436926         1.674745
 H        -2.240449         1.270686        -0.689818
 H        -1.669576        -1.347101        -1.744157
 H        -0.080967        -0.329544        -1.828575
 H         0.654719        -2.727042         1.325432
 H        -0.696170        -3.237923         0.347440
 H         0.803795        -2.822868        -0.420693
