19
Iteration:  1002charge 0 multiplicity 1
 C        -2.998878        -1.609627         0.885045
 C        -1.845321        -0.664115         0.827975
 C        -1.760509         0.453969        -0.208684
 C        -1.260936        -0.536629        -1.292624
 C        -0.556875        -1.187327        -0.071461
 C        -0.077469        -2.646998         0.093993
 C         0.397801        -0.017224         0.349780
 O         1.485895         0.104062         0.894956
 O        -0.483417         1.013806         0.290528
 H        -3.305888        -1.853747         1.907863
 H        -3.907291        -1.084760         0.582455
 H        -2.991860        -2.511071         0.264426
 H        -1.647058        -0.249785         1.831704
 H        -2.549499         1.200910        -0.419336
 H        -2.076924        -1.223402        -1.613873
 H        -0.715833        -0.163592        -2.201206
 H         0.509113        -3.121194        -0.698838
 H         0.429794        -2.678203         1.140421
 H        -0.855259        -3.365552         0.253635
