19
Iteration:  4329
 C        -3.101242        -1.829869         0.297922
 C        -1.895623        -0.870791         0.606027
 C        -1.789867         0.454769        -0.302577
 C        -1.004353        -0.348118        -1.318741
 C        -0.495691        -1.146663        -0.001178
 C         0.180937        -2.533583        -0.079895
 C         0.281402        -0.027591         0.746303
 O         1.223826         0.066576         1.441184
 O        -0.569027         1.108557         0.455439
 H        -2.775342        -2.888470         0.085145
 H        -3.914110        -1.652958         1.012226
 H        -3.461910        -1.469096        -0.751251
 H        -1.855159        -0.728349         1.692441
 H        -2.498841         1.190178        -0.727566
 H        -1.585884        -1.053766        -1.894739
 H        -0.218460         0.185947        -1.825912
 H         0.428548        -2.767202        -1.168811
 H         1.189946        -2.266187         0.356995
 H        -0.210328        -3.390584         0.561145
