19
Iteration:   619charge 0 multiplicity 1
 C        -3.035179        -1.466275         1.084142
 C        -1.793512        -0.655238         0.988713
 C        -1.756740         0.401870        -0.207570
 C        -1.327200        -0.710978        -1.260827
 C        -0.623519        -1.214745        -0.025327
 C         0.006809        -2.588889         0.177643
 C         0.312073        -0.002803         0.286992
 O         1.481655         0.000040         0.422177
 O        -0.432186         1.093431         0.384622
 H        -2.932430        -2.221746         1.892881
 H        -3.806999        -0.736954         1.343749
 H        -3.281105        -2.016332         0.149031
 H        -1.605232        -0.014366         1.841473
 H        -2.452441         1.222888        -0.537495
 H        -2.203027        -1.388010        -1.460192
 H        -0.697333        -0.379214        -2.149914
 H        -0.760765        -3.403729         0.414589
 H         0.520616        -2.912296        -0.816863
 H         0.733426        -2.466507         0.902665
