19
Iteration:  2151charge 0 multiplicity 1
 C        -3.326778        -1.544664         0.185471
 C        -2.007848        -0.659693         0.351770
 C        -1.508134         0.351246        -0.621373
 C        -0.450909        -0.776430        -1.265810
 C        -0.598834        -1.232157         0.208848
 C         0.194802        -2.514399         0.421876
 C         0.077441        -0.026846         0.771898
 O         0.993809         0.101900         1.556718
 O        -0.516096         1.167465         0.206358
 H        -3.273715        -2.148311        -0.727818
 H        -3.405363        -2.214913         0.965087
 H        -4.154095        -0.855460         0.217768
 H        -2.067000        -0.022292         1.268735
 H        -2.162097         0.870802        -1.269910
 H        -1.000810        -1.627501        -1.866768
 H         0.475021        -0.394644        -1.701247
 H        -0.427965        -3.431461        -0.001302
 H         1.070525        -2.551086        -0.217319
 H         0.421891        -2.756753         1.543240
