19
Iteration:  4080
 C        -3.066487        -1.805122         0.405933
 C        -1.883506        -0.867292         0.616654
 C        -1.664465         0.493452        -0.296012
 C        -0.960436        -0.379382        -1.329545
 C        -0.428416        -1.125470        -0.002390
 C         0.180533        -2.572031        -0.188769
 C         0.209161         0.032267         0.759218
 O         1.192942         0.038222         1.448604
 O        -0.697761         1.094758         0.451942
 H        -2.848946        -2.896434         0.533632
 H        -4.026737        -1.605971         0.991655
 H        -3.251229        -1.612804        -0.664750
 H        -1.693294        -0.429710         1.616311
 H        -2.371167         1.315977        -0.550759
 H        -1.492383        -1.096153        -1.959388
 H        -0.160545        -0.006602        -2.107926
 H         0.812457        -2.570049        -1.058378
 H         0.752027        -2.889454         0.636228
 H        -0.600241        -3.312855        -0.364522
