19
Iteration:    82charge 0 multiplicity 1
 C        -2.886544        -1.484844         1.393744
 C        -1.566995        -0.693580         1.167683
 C        -1.728612         0.535675         0.178073
 C        -1.769658        -0.622569        -0.894774
 C        -0.651958        -1.230428        -0.072610
 C        -0.103934        -2.625065        -0.123500
 C         0.400001        -0.083628        -0.035471
 O         1.581992         0.048764         0.181968
 O        -0.421248         1.057683         0.059394
 H        -2.847344        -1.663385         2.504379
 H        -3.752398        -0.870359         1.019911
 H        -2.880983        -2.462133         0.840101
 H        -1.058622        -0.421870         2.104821
 H        -2.502622         1.303545         0.345053
 H        -2.710391        -1.314818        -0.852996
 H        -1.384351        -0.409591        -1.962931
 H         0.266108        -3.055335        -1.060007
 H         0.648755        -2.684103         0.683851
 H        -0.952168        -3.332899         0.148386
