19
Iteration:  1704charge 0 multiplicity 1
 C        -3.206631        -1.549592         0.325818
 C        -1.924039        -0.747369         0.534500
 C        -1.653287         0.410796        -0.475493
 C        -0.869429        -0.538312        -1.345449
 C        -0.459781        -1.216795         0.029032
 C         0.118529        -2.639811         0.491090
 C         0.201477        -0.008835         0.649437
 O         1.141284         0.047285         1.417677
 O        -0.487463         1.130391         0.133429
 H        -3.896015        -1.174928         0.982192
 H        -3.561227        -1.730720        -0.665440
 H        -3.040594        -2.519505         0.812576
 H        -1.915398        -0.398469         1.585010
 H        -2.213880         1.139061        -1.133346
 H        -1.513581        -1.147687        -1.903334
 H         0.048102        -0.199527        -1.899034
 H        -0.686683        -3.433473         0.388997
 H         1.031819        -2.879054        -0.016121
 H         0.488724        -2.678699         1.561688
