19
Iteration:  1106
 C        -3.164908        -1.629588         0.793386
 C        -1.875584        -0.776598         0.816330
 C        -1.772243         0.408622        -0.204153
 C        -1.071830        -0.493016        -1.346323
 C        -0.475196        -1.140695        -0.007046
 C        -0.104566        -2.612299         0.279849
 C         0.365591         0.004169         0.441557
 O         1.539504         0.031214         0.737840
 O        -0.534358         1.086352         0.322338
 H        -3.146167        -2.685380         0.465643
 H        -3.754413        -1.455471         1.692919
 H        -3.921952        -1.174663         0.078950
 H        -1.950307        -0.369269         1.851396
 H        -2.574171         1.090149        -0.415485
 H        -1.780735        -1.130435        -1.975073
 H        -0.278687        -0.065492        -1.912916
 H        -0.576367        -3.207981         1.076609
 H        -0.216487        -3.107670        -0.609355
 H         1.005099        -2.564574         0.524594
