19
Iteration:  1153
 C        -3.071452        -1.673850         0.575696
 C        -1.889587        -0.616663         0.847604
 C        -1.708289         0.476260        -0.219038
 C        -1.315588        -0.680849        -1.126541
 C        -0.617579        -1.185397         0.143715
 C        -0.017657        -2.525703         0.104889
 C         0.394996        -0.027694         0.435542
 O         1.491607         0.020110         0.957124
 O        -0.414067         1.120254         0.149814
 H        -2.640270        -2.620528         0.066140
 H        -3.649166        -1.926097         1.492068
 H        -3.970498        -1.380167        -0.069217
 H        -1.767904        -0.251472         1.895191
 H        -2.395533         1.335355        -0.267168
 H        -2.154128        -1.261762        -1.446501
 H        -0.680139        -0.357420        -1.983603
 H         0.809410        -2.582528         0.786186
 H        -0.796414        -3.263014         0.518640
 H         0.407755        -2.790675        -0.816916
