19
Iteration:  2236charge 0 multiplicity 1
 C        -3.085290        -1.732325         0.027055
 C        -2.096669        -0.687159         0.380644
 C        -1.587924         0.386341        -0.585385
 C        -0.559020        -0.679650        -1.301613
 C        -0.560991        -1.133119         0.272894
 C        -0.173907        -2.553328         0.604382
 C         0.236038         0.081928         0.796641
 O         1.295024         0.165057         1.372289
 O        -0.599610         1.071328         0.274383
 H        -2.862355        -2.253863        -0.920692
 H        -3.171170        -2.420793         0.915340
 H        -4.120109        -1.421244        -0.121463
 H        -2.383486        -0.164465         1.299102
 H        -2.008448         1.175176        -1.096305
 H        -1.090903        -1.417459        -2.021077
 H         0.408464        -0.399581        -1.692363
 H        -0.526754        -3.077471        -0.345469
 H         0.847359        -2.701782         0.781917
 H        -0.599215        -2.947009         1.567839
