19
Iteration:   748charge 0 multiplicity 1
 C        -3.182155        -1.469965         1.181681
 C        -1.987483        -0.605987         0.892990
 C        -1.772682         0.418764        -0.184545
 C        -1.230239        -0.619508        -1.284949
 C        -0.568999        -1.204558         0.064369
 C         0.194147        -2.654595         0.055186
 C         0.329405        -0.044315         0.413561
 O         1.516775        -0.046166         0.615505
 O        -0.461648         1.111276         0.121783
 H        -3.029353        -2.280294         1.914917
 H        -3.877065        -0.778929         1.769453
 H        -3.751878        -1.798640         0.288727
 H        -1.629369        -0.106917         1.823021
 H        -2.656487         1.099678        -0.279264
 H        -2.020136        -1.333274        -1.640380
 H        -0.672407        -0.218965        -2.189120
 H         1.290499        -2.546792        -0.080534
 H        -0.036811        -3.439678         0.873666
 H        -0.183302        -3.140232        -0.923567
