19
Iteration:  3001charge 0 multiplicity 1
 C        -3.069921        -1.774853        -0.049657
 C        -1.961269        -0.792029         0.483485
 C        -1.665270         0.410532        -0.351454
 C        -0.773309        -0.522005        -1.296409
 C        -0.516453        -1.195614         0.151588
 C        -0.035873        -2.533343         0.553892
 C         0.214178         0.033258         0.686622
 O         1.245452         0.127454         1.292944
 O        -0.538448         1.144949         0.350846
 H        -3.332303        -1.826779        -1.221037
 H        -2.708626        -2.826316         0.136839
 H        -4.064405        -1.704133         0.555495
 H        -2.227191        -0.635651         1.530014
 H        -2.282757         1.191971        -0.647639
 H        -1.407371        -1.143393        -1.981730
 H         0.102172        -0.070110        -1.895809
 H        -0.498502        -3.280283        -0.068438
 H         1.041411        -2.631495         0.663118
 H        -0.549526        -2.597884         1.539017
