19
Iteration:  1786charge 0 multiplicity 1
 C        -3.216236        -1.617072         0.076336
 C        -2.007622        -0.789983         0.456638
 C        -1.582026         0.336290        -0.461343
 C        -0.742800        -0.626902        -1.244015
 C        -0.576421        -1.187946         0.184350
 C        -0.031632        -2.460983         0.581047
 C         0.216134         0.010672         0.769758
 O         1.346675         0.104015         1.167136
 O        -0.544558         1.070179         0.299040
 H        -3.264513        -2.660769         0.531852
 H        -4.052231        -1.052051         0.515889
 H        -3.261670        -1.655479        -0.992915
 H        -2.235043        -0.215077         1.359348
 H        -2.190932         1.086412        -0.948544
 H        -1.201690        -1.372527        -1.989848
 H         0.166336        -0.176365        -1.636309
 H        -0.459137        -2.649262         1.554643
 H        -0.372652        -3.391957         0.042781
 H         1.015781        -2.332449         0.791296
