19
Iteration:  1579
 C        -3.075150        -1.764909         0.269249
 C        -2.015519        -0.683916         0.593802
 C        -1.576385         0.541827        -0.408423
 C        -0.852279        -0.538449        -1.296679
 C        -0.544824        -1.219578         0.074560
 C        -0.078227        -2.584569         0.446658
 C         0.248137        -0.049033         0.605009
 O         1.329719         0.112202         1.108861
 O        -0.540893         1.089182         0.382000
 H        -2.791270        -2.633621        -0.361256
 H        -3.478359        -2.150901         1.237868
 H        -4.013443        -1.294068         0.034984
 H        -2.193437        -0.280605         1.634434
 H        -2.251531         1.271020        -0.762900
 H        -1.574061        -1.244997        -1.878508
 H        -0.047555        -0.141129        -1.909679
 H         1.002760        -2.580512         0.465684
 H        -0.384197        -2.890364         1.504870
 H        -0.466078        -3.350380        -0.192613
