19
Iteration:  4185
 C        -3.072042        -1.878449         0.052607
 C        -2.000109        -0.859012         0.530100
 C        -1.859125         0.530169        -0.086671
 C        -0.919780        -0.260533        -1.256280
 C        -0.520919        -1.162955         0.085510
 C         0.208004        -2.548191         0.161353
 C         0.223880        -0.042121         0.690434
 O         1.406456         0.098527         0.950035
 O        -0.626813         1.039396         0.697370
 H        -3.525665        -2.518342         0.834842
 H        -3.881421        -1.213803        -0.262978
 H        -2.845640        -2.577017        -0.817847
 H        -2.028829        -0.709090         1.631635
 H        -2.695202         1.290826        -0.043527
 H        -1.674452        -0.835823        -1.794689
 H        -0.067421         0.058933        -1.743403
 H         1.278298        -2.337783         0.307851
 H        -0.034675        -3.100089         1.167095
 H        -0.030107        -3.269940        -0.714470
