19
Iteration:   657charge 0 multiplicity 1
 C        -3.052107        -1.744869         0.993500
 C        -1.851532        -0.639209         1.013200
 C        -1.768275         0.434419        -0.095720
 C        -1.382823        -0.511953        -1.173104
 C        -0.636167        -1.143563         0.116404
 C        -0.122742        -2.523501         0.212354
 C         0.375100        -0.010874         0.320324
 O         1.561416        -0.032296         0.442547
 O        -0.335493         1.085185         0.071395
 H        -3.283636        -2.195304         1.959835
 H        -3.985848        -1.162327         0.827697
 H        -2.947413        -2.537021         0.242791
 H        -1.587436        -0.495915         2.075682
 H        -2.328276         1.342679        -0.242233
 H        -2.044147        -1.230486        -1.608573
 H        -0.806017         0.019432        -1.919650
 H        -0.476256        -2.968184         1.132346
 H        -0.253148        -3.159156        -0.613476
 H         1.062722        -2.447717         0.284635
