19
Iteration:  1552charge 0 multiplicity 1
 C        -3.143297        -1.734497         0.278508
 C        -2.086904        -0.656448         0.593170
 C        -1.705663         0.427924        -0.480051
 C        -0.864940        -0.533955        -1.237180
 C        -0.603021        -1.175797         0.194397
 C         0.054157        -2.487909         0.424575
 C         0.268737         0.008064         0.678362
 O         1.419472        -0.071399         1.069297
 O        -0.496464         1.129074         0.338055
 H        -2.719600        -2.735307        -0.033301
 H        -3.747723        -1.959829         1.163726
 H        -4.018664        -1.400990        -0.355205
 H        -2.403097        -0.171109         1.510043
 H        -2.524124         1.163295        -0.825977
 H        -1.478013        -1.190933        -1.772716
 H        -0.028343        -0.158767        -1.878382
 H         0.954895        -2.203336         1.027487
 H        -0.446121        -3.281143         0.884264
 H         0.308248        -2.816135        -0.618662
