19
Iteration:   742charge 0 multiplicity 1
 C        -3.252979        -1.487034         1.220696
 C        -1.967390        -0.677017         0.891733
 C        -1.783232         0.390529        -0.215670
 C        -1.231751        -0.561064        -1.252366
 C        -0.563457        -1.213891         0.045414
 C         0.196026        -2.629253         0.047306
 C         0.326803        -0.023679         0.435437
 O         1.523059        -0.040604         0.588409
 O        -0.431702         1.113878         0.116120
 H        -2.983114        -2.203101         2.021061
 H        -3.911873        -0.718976         1.567438
 H        -3.730174        -1.883481         0.327362
 H        -1.576820        -0.185094         1.782662
 H        -2.552749         1.129294        -0.311136
 H        -1.895865        -1.372442        -1.618281
 H        -0.629678        -0.297257        -2.093782
 H         1.306697        -2.752351         0.060706
 H        -0.346801        -3.125847         0.827881
 H        -0.130225        -3.011209        -0.895228
