19
Iteration:  3868
 C        -3.076036        -1.788268         0.209019
 C        -1.950612        -0.868935         0.558964
 C        -1.706104         0.444010        -0.182500
 C        -1.008624        -0.353356        -1.230300
 C        -0.437391        -1.131716        -0.027024
 C         0.186378        -2.477437        -0.000321
 C         0.219626         0.013051         0.668229
 O         1.285144        -0.010112         1.272726
 O        -0.633460         1.087492         0.573884
 H        -2.615735        -2.657811        -0.285380
 H        -3.798963        -2.195070         0.901403
 H        -3.672449        -1.454841        -0.624078
 H        -2.011238        -0.776460         1.635884
 H        -2.432408         1.209031        -0.396715
 H        -1.645095        -0.921004        -1.980061
 H        -0.338509         0.256085        -1.879749
 H         1.190201        -2.350552        -0.227511
 H         0.125393        -2.840586         1.020573
 H        -0.269082        -3.216287        -0.605254
