19
Iteration:  1940charge 0 multiplicity 1
 C        -3.154906        -1.632701         0.181103
 C        -2.024921        -0.634125         0.415475
 C        -1.500511         0.447526        -0.658550
 C        -0.704816        -0.662502        -1.302111
 C        -0.617473        -1.205292         0.089466
 C         0.118447        -2.520167         0.611448
 C         0.131483        -0.044725         0.703323
 O         1.032438         0.039071         1.509224
 O        -0.477461         1.092443         0.183554
 H        -3.416049        -1.724815        -0.860627
 H        -2.890125        -2.671105         0.482733
 H        -4.050818        -1.446550         0.718331
 H        -1.993996        -0.140683         1.412935
 H        -2.115058         1.357233        -0.960977
 H        -1.155867        -1.401857        -1.953307
 H         0.336598        -0.389036        -1.767478
 H         0.743383        -2.977534        -0.201841
 H         0.877003        -2.106150         1.417564
 H        -0.507002        -3.241777         1.188258
