19
Iteration:  4634charge 0 multiplicity 1
 C        -3.159536        -1.747441         0.054952
 C        -2.033280        -0.868704         0.577406
 C        -1.683040         0.443221        -0.198948
 C        -0.763836        -0.379308        -1.156943
 C        -0.579310        -1.222320         0.056423
 C         0.180024        -2.588418         0.068926
 C         0.236071         0.032850         0.733608
 O         1.410694         0.171584         1.045089
 O        -0.770468         1.065686         0.711873
 H        -3.282107        -2.667454         0.651008
 H        -4.131488        -1.365918        -0.192781
 H        -2.829217        -2.137688        -0.916252
 H        -2.027516        -0.913772         1.699967
 H        -2.479803         1.113798        -0.523238
 H        -1.397636        -0.869694        -1.878243
 H         0.118325         0.167764        -1.521515
 H        -0.325228        -3.101435        -0.742155
 H         1.232682        -2.495588        -0.283002
 H         0.195185        -3.219915         1.027745
