19
Iteration:  1630charge 0 multiplicity 1
 C        -3.172678        -1.568200         0.257310
 C        -1.979008        -0.697309         0.639438
 C        -1.581422         0.424966        -0.409550
 C        -0.940632        -0.654342        -1.230804
 C        -0.562289        -1.275070         0.188154
 C         0.070525        -2.634592         0.297954
 C         0.253212         0.040736         0.610626
 O         1.221031         0.201850         1.322197
 O        -0.450539         1.047561         0.194636
 H        -3.511454        -1.288997        -0.843188
 H        -2.928965        -2.629655         0.288807
 H        -4.106124        -1.365268         0.869278
 H        -1.905448        -0.453474         1.694940
 H        -2.290351         1.107599        -0.896148
 H        -1.517606        -1.334485        -1.798011
 H        -0.097593        -0.177791        -1.810541
 H         0.406954        -3.067395        -0.697122
 H         0.880670        -2.617737         0.995433
 H        -0.621206        -3.453969         0.735556
