19
Iteration:  2111
 C        -3.262936        -1.541145         0.082957
 C        -2.029468        -0.764103         0.337751
 C        -1.521505         0.292249        -0.638650
 C        -0.588384        -0.659317        -1.358579
 C        -0.369600        -1.234362         0.101507
 C        -0.028249        -2.639636         0.509286
 C         0.224539         0.020830         0.787377
 O         1.059892         0.280742         1.635624
 O        -0.515087         1.101579         0.281297
 H        -3.399209        -2.070111        -0.908043
 H        -3.406450        -2.409706         0.807883
 H        -4.218894        -0.917237         0.228029
 H        -2.100214        -0.315007         1.348037
 H        -2.374686         1.020978        -0.905730
 H        -1.175818        -1.406433        -1.846040
 H         0.270904        -0.498670        -1.985229
 H        -0.837013        -3.266597         0.697974
 H         0.594073        -3.006206        -0.321030
 H         0.526577        -2.595407         1.405558
