19
Iteration:  1797charge 0 multiplicity 1
 C        -3.256365        -1.569577         0.071345
 C        -2.021701        -0.737622         0.441840
 C        -1.597281         0.404861        -0.516061
 C        -0.714011        -0.616929        -1.356500
 C        -0.467623        -1.184058         0.169280
 C         0.042128        -2.496140         0.742078
 C         0.194137         0.002039         0.685138
 O         1.300019         0.065065         1.176100
 O        -0.585287         1.043480         0.392995
 H        -3.133490        -2.673969         0.308971
 H        -4.115787        -1.203085         0.651432
 H        -3.626774        -1.521608        -0.930910
 H        -2.064302        -0.560474         1.525488
 H        -2.319676         1.101481        -0.947192
 H        -1.334835        -1.425321        -1.867937
 H         0.126755        -0.281535        -1.981861
 H        -0.127829        -2.593531         1.799893
 H        -0.386381        -3.287061         0.063689
 H         1.085079        -2.582707         0.470203
