19
Iteration:   906charge 0 multiplicity 1
 C        -3.134603        -1.420179         0.763436
 C        -1.852433        -0.734473         0.937528
 C        -1.730672         0.381177        -0.007332
 C        -1.408141        -0.632303        -1.221761
 C        -0.530034        -1.218696        -0.017182
 C         0.163297        -2.638654         0.173614
 C         0.391118         0.011450         0.295139
 O         1.541302        -0.001368         0.685272
 O        -0.540317         1.139526         0.220475
 H        -3.459825        -1.860112         1.712652
 H        -3.966328        -0.760031         0.365147
 H        -3.145342        -2.283368         0.108644
 H        -1.834021        -0.404454         1.996131
 H        -2.538177         1.182450         0.085858
 H        -2.213319        -1.307872        -1.483743
 H        -0.767254        -0.391514        -2.107303
 H        -0.044698        -2.890002         1.220815
 H        -0.373257        -3.339315        -0.474543
 H         1.246653        -2.797173         0.019438
