19
Iteration:  2783
 C        -3.160240        -1.568076        -0.081826
 C        -1.954536        -0.809220         0.495537
 C        -1.561617         0.312297        -0.507015
 C        -0.714399        -0.747614        -1.175237
 C        -0.528395        -1.243041         0.212137
 C         0.009299        -2.603833         0.509443
 C         0.197472         0.055660         0.811550
 O         1.187628         0.344723         1.399718
 O        -0.595855         1.120816         0.198343
 H        -2.950574        -2.560758        -0.499891
 H        -3.937540        -1.708321         0.616200
 H        -3.552631        -0.974845        -0.879825
 H        -2.054796        -0.518610         1.619317
 H        -2.314785         0.917876        -0.982737
 H        -1.255055        -1.471282        -1.754602
 H         0.306273        -0.526133        -1.706677
 H        -0.538047        -3.443471         0.043785
 H         1.162615        -2.749840         0.246253
 H        -0.101436        -2.816377         1.602864
