19
Iteration:  3910
 C        -3.053239        -1.820752        -0.075980
 C        -1.992862        -0.935760         0.579565
 C        -1.731465         0.512361        -0.099873
 C        -0.972899        -0.271696        -1.134221
 C        -0.516401        -1.136303         0.033123
 C         0.163040        -2.505751         0.232461
 C         0.167402        -0.014407         0.690588
 O         1.370818         0.021755         0.929223
 O        -0.616501         1.070931         0.700704
 H        -2.666097        -2.846778         0.021265
 H        -3.981125        -1.732636         0.510478
 H        -3.288858        -1.617942        -1.098931
 H        -2.047128        -0.884837         1.699776
 H        -2.410041         1.288641        -0.417655
 H        -1.750953        -0.944383        -1.561966
 H        -0.238349         0.142617        -1.871507
 H         1.268214        -2.387967        -0.189227
 H         0.315343        -2.675035         1.347242
 H        -0.347808        -3.417058        -0.176773
