19
Iteration:  3814charge 0 multiplicity 1
 C        -3.152805        -1.771588         0.392470
 C        -1.982448        -0.847848         0.734682
 C        -1.743677         0.404692        -0.243278
 C        -0.913499        -0.389312        -1.383831
 C        -0.304827        -1.135336        -0.074978
 C         0.181380        -2.544082        -0.303591
 C         0.209635        -0.025891         0.781293
 O         1.123847         0.105134         1.578185
 O        -0.510673         1.095107         0.336521
 H        -2.953350        -2.596361        -0.361330
 H        -3.473068        -2.277152         1.336812
 H        -4.096101        -1.302273         0.004841
 H        -2.072557        -0.577896         1.776884
 H        -2.522899         1.150559        -0.374984
 H        -1.497526        -1.181527        -1.977324
 H        -0.063180         0.166060        -1.760415
 H         1.014554        -2.406274        -0.874614
 H         0.566074        -2.994198         0.610611
 H        -0.551216        -3.130389        -0.790531
