19
Iteration:  2342
 C        -3.128178        -1.642679         0.103918
 C        -2.031360        -0.663531         0.446437
 C        -1.532230         0.448378        -0.664035
 C        -0.714084        -0.698641        -1.323335
 C        -0.503684        -1.176951         0.116166
 C         0.085596        -2.515325         0.569806
 C         0.160521         0.036511         0.772512
 O         1.008943         0.069620         1.624038
 O        -0.454897         1.063550         0.134495
 H        -3.012333        -2.104867        -0.896889
 H        -3.025829        -2.539084         0.744005
 H        -4.082682        -1.134485         0.124023
 H        -2.331007        -0.196155         1.414094
 H        -2.206107         1.248195        -0.997257
 H        -1.348029        -1.423265        -1.840889
 H         0.164030        -0.422780        -1.910618
 H        -0.652104        -3.299974         0.627659
 H         0.795524        -2.893687        -0.187635
 H         0.477561        -2.476069         1.577981
