19
Iteration:  2265charge 0 multiplicity 1
 C        -3.230656        -1.644254        -0.004699
 C        -2.108416        -0.651445         0.330211
 C        -1.496946         0.479354        -0.586109
 C        -0.525228        -0.782513        -1.212660
 C        -0.549112        -1.270324         0.253499
 C         0.015268        -2.656756         0.603189
 C         0.100050         0.030251         0.856125
 O         1.225695         0.217463         1.240369
 O        -0.612630         1.155944         0.355031
 H        -3.100047        -2.095829        -1.005617
 H        -3.124363        -2.487575         0.783326
 H        -4.249765        -1.170579         0.096681
 H        -2.388249        -0.224513         1.334610
 H        -1.811171         1.339755        -1.282197
 H        -1.050501        -1.456207        -1.802543
 H         0.535212        -0.597080        -1.486999
 H        -0.521676        -3.353685         0.038992
 H         1.120201        -2.825072         0.310326
 H         0.000964        -2.807171         1.658643
