19
Iteration:  4651
 C        -3.089230        -1.765586        -0.037589
 C        -2.009023        -0.893247         0.577847
 C        -1.703705         0.420296        -0.191473
 C        -0.895505        -0.355677        -1.230958
 C        -0.451300        -1.156542         0.154402
 C         0.176427        -2.470353         0.115822
 C         0.189884        -0.037379         0.738297
 O         1.349158         0.101841         1.018610
 O        -0.695382         1.016687         0.743334
 H        -3.288612        -2.645666         0.573486
 H        -3.972104        -1.069061         0.025250
 H        -2.960593        -2.196864        -1.062113
 H        -2.238471        -0.496913         1.567210
 H        -2.379302         1.265382        -0.409864
 H        -1.468202        -1.055127        -1.922937
 H        -0.092821         0.181949        -1.812127
 H        -0.391081        -3.311765        -0.318545
 H         1.127965        -2.382026        -0.432308
 H         0.277579        -2.748575         1.142556
