19
Iteration:  4238
 C        -3.077224        -1.784371         0.253992
 C        -1.924681        -0.913001         0.654649
 C        -1.677166         0.444068        -0.207081
 C        -1.022293        -0.398161        -1.298949
 C        -0.451343        -1.212331         0.058726
 C         0.110924        -2.554454        -0.144570
 C         0.299954         0.020297         0.740097
 O         1.293464         0.151032         1.381455
 O        -0.645655         1.124801         0.422934
 H        -3.191815        -2.586406         1.026072
 H        -4.085933        -1.268275         0.091415
 H        -2.922474        -2.439618        -0.689054
 H        -1.915835        -0.845283         1.788188
 H        -2.555938         1.134914        -0.308120
 H        -1.789086        -0.814178        -2.019583
 H        -0.224719         0.161654        -1.754237
 H         1.072571        -2.277377        -0.503195
 H         0.274746        -3.184790         0.740715
 H        -0.436489        -3.174380        -0.867357
