19
Iteration:   871
 C        -3.163287        -1.588559         0.881792
 C        -1.990560        -0.706911         0.877907
 C        -1.705359         0.483257        -0.121515
 C        -1.183972        -0.629910        -1.219270
 C        -0.618305        -1.233998         0.199987
 C         0.036880        -2.541438         0.132171
 C         0.342067        -0.022879         0.409361
 O         1.546692         0.050811         0.516805
 O        -0.447631         1.081406         0.230114
 H        -3.049571        -2.196714         1.825412
 H        -4.083990        -1.028593         1.015223
 H        -3.248986        -2.271344         0.020938
 H        -1.764307        -0.364583         1.893899
 H        -2.436722         1.265186        -0.258669
 H        -2.035532        -1.189242        -1.712395
 H        -0.443764        -0.297953        -1.972322
 H        -0.685516        -3.324542         0.467381
 H         0.368672        -2.955111        -0.880454
 H         0.884962        -2.528131         0.741215
