19
Iteration:  1323charge 0 multiplicity 1
 C        -3.209292        -1.550479         0.563228
 C        -1.994659        -0.710127         0.666388
 C        -1.761160         0.425216        -0.350639
 C        -0.935013        -0.533017        -1.306496
 C        -0.589221        -1.227669         0.133190
 C         0.150282        -2.564105         0.328511
 C         0.279394        -0.055323         0.498930
 O         1.410769         0.014613         0.878372
 O        -0.522336         1.080978         0.394992
 H        -4.128981        -1.049941         0.324346
 H        -2.983524        -2.341811        -0.142787
 H        -3.463008        -2.052179         1.489929
 H        -1.798090        -0.350759         1.642728
 H        -2.583129         1.131243        -0.583595
 H        -1.615524        -1.244025        -1.854342
 H        -0.191772        -0.028847        -1.938900
 H         0.194596        -2.767209         1.440849
 H        -0.440505        -3.371812        -0.016934
 H         1.202834        -2.531431        -0.102335
