19
Iteration:   904
 C        -3.131508        -1.408019         0.769605
 C        -1.862831        -0.739610         0.951679
 C        -1.746607         0.386197        -0.018042
 C        -1.394722        -0.616732        -1.224365
 C        -0.527385        -1.231224         0.014233
 C         0.161609        -2.633383         0.162505
 C         0.386097         0.005212         0.294442
 O         1.537291         0.010009         0.675330
 O        -0.530067         1.123426         0.217410
 H        -3.464394        -1.945613         1.685874
 H        -3.906114        -0.788138         0.348178
 H        -3.168590        -2.276392         0.120366
 H        -1.776161        -0.401666         1.999442
 H        -2.508157         1.178065         0.033582
 H        -2.233707        -1.296451        -1.540716
 H        -0.777199        -0.325103        -2.102949
 H        -0.072660        -2.904893         1.207753
 H        -0.313737        -3.420985        -0.540469
 H         1.191484        -2.763489         0.121357
