19
Iteration:  4550charge 0 multiplicity 1
 C        -3.011304        -1.936015         0.287152
 C        -2.010616        -0.800093         0.647558
 C        -1.696665         0.529715        -0.282604
 C        -0.982919        -0.332142        -1.354836
 C        -0.536901        -1.095448        -0.107389
 C         0.231223        -2.399033        -0.020903
 C         0.290935        -0.033237         0.695571
 O         1.149087        -0.138115         1.501672
 O        -0.579404         1.134594         0.393197
 H        -2.758156        -2.968816         0.646672
 H        -3.882215        -1.750699         1.017624
 H        -3.305587        -1.909492        -0.761258
 H        -1.896443        -0.659428         1.757548
 H        -2.485840         1.280626        -0.451147
 H        -1.615933        -0.778437        -2.118259
 H        -0.189595         0.117234        -1.947002
 H         0.041341        -3.217180        -0.726479
 H         1.267051        -2.148153        -0.016911
 H        -0.014299        -2.777681         0.959473
