19
Iteration:  2798charge 0 multiplicity 1
 C        -3.160622        -1.588411         0.028772
 C        -1.932298        -0.804492         0.452103
 C        -1.613161         0.316101        -0.573023
 C        -0.712870        -0.780622        -1.386235
 C        -0.425144        -1.230429         0.203428
 C         0.019260        -2.660204         0.560452
 C         0.196956         0.188541         0.745881
 O         1.118660         0.251760         1.534138
 O        -0.548753         1.160092         0.245976
 H        -3.025413        -2.670562        -0.123563
 H        -3.875658        -1.485882         0.872623
 H        -3.713190        -1.180396        -0.860204
 H        -2.185642        -0.466796         1.484365
 H        -2.273859         1.049190        -1.054954
 H        -1.398201        -1.555312        -1.828175
 H        -0.025434        -0.355724        -2.032784
 H        -0.510287        -3.317866        -0.142708
 H         1.141210        -2.658074         0.237763
 H        -0.029760        -2.886182         1.641477
