19
Iteration:  1125
 C        -3.036504        -1.622155         0.644556
 C        -1.869389        -0.738735         0.827334
 C        -1.740279         0.472606        -0.233409
 C        -1.184789        -0.512360        -1.211659
 C        -0.564060        -1.211604         0.089655
 C        -0.110855        -2.646910         0.224542
 C         0.357820        -0.026635         0.439918
 O         1.501723         0.072179         0.813423
 O        -0.484957         1.128977         0.230750
 H        -2.682751        -2.576551         0.410996
 H        -3.521154        -1.848106         1.610996
 H        -3.848042        -1.406290         0.002332
 H        -1.610579        -0.504847         1.866747
 H        -2.449261         1.324346        -0.320743
 H        -1.969984        -1.192810        -1.618531
 H        -0.651739        -0.058938        -2.066775
 H        -0.247067        -2.933571         1.326962
 H        -0.796573        -3.342763        -0.254138
 H         0.986230        -2.905348        -0.013958
