19
Iteration:   824
 C        -3.023638        -1.628031         0.925106
 C        -1.785239        -0.685313         0.933694
 C        -1.682653         0.492458        -0.121764
 C        -1.333400        -0.547054        -1.275249
 C        -0.615383        -1.221957         0.018885
 C        -0.111673        -2.591671         0.256097
 C         0.308434        -0.035460         0.330347
 O         1.453954         0.102297         0.638275
 O        -0.412313         1.044285         0.137821
 H        -2.615992        -2.642243         1.109842
 H        -3.757880        -1.498703         1.741321
 H        -3.531454        -1.729628        -0.057792
 H        -1.348098        -0.400858         1.907521
 H        -2.393955         1.317340        -0.143392
 H        -2.008992        -1.277614        -1.741668
 H        -0.585753        -0.130018        -1.959487
 H        -0.264610        -3.190239        -0.665509
 H         0.984464        -2.761379         0.420849
 H        -0.525590        -3.084666         1.177343
