19
Iteration:  2645
 C        -3.124045        -1.560651         0.152995
 C        -2.016722        -0.580898         0.522013
 C        -1.636863         0.304666        -0.692945
 C        -0.737704        -0.710373        -1.307871
 C        -0.431745        -1.194004         0.275394
 C         0.146349        -2.657215         0.370143
 C         0.176771         0.004035         0.775388
 O         1.006839         0.248655         1.668788
 O        -0.492745         1.004655         0.094128
 H        -3.221811        -1.485689        -0.998838
 H        -3.063700        -2.634819         0.472390
 H        -4.100872        -1.020368         0.535703
 H        -2.046220        -0.153875         1.489377
 H        -2.218301         1.111341        -1.033068
 H        -1.326101        -1.524881        -1.825282
 H         0.019108        -0.331740        -1.980675
 H        -0.317240        -3.205703        -0.356087
 H         1.240510        -2.576652         0.123525
 H        -0.022383        -3.155699         1.280293
