19
Iteration:  2975charge 0 multiplicity 1
 C        -3.142238        -1.821676        -0.024495
 C        -2.032417        -0.767447         0.426894
 C        -1.658631         0.446325        -0.490377
 C        -0.710144        -0.432159        -1.331808
 C        -0.561590        -1.170575         0.199861
 C         0.061047        -2.442301         0.692071
 C         0.218101        -0.019790         0.737470
 O         1.364401         0.005176         1.216683
 O        -0.674245         1.090381         0.404687
 H        -3.712779        -1.457814        -0.837958
 H        -2.729895        -2.788117        -0.410754
 H        -3.839459        -2.084951         0.721728
 H        -2.281099        -0.428118         1.425360
 H        -2.299251         1.308128        -0.936569
 H        -1.207920        -0.931569        -2.132690
 H         0.242066        -0.060722        -1.713145
 H        -0.472786        -3.370890         0.196382
 H         1.134136        -2.342185         0.505240
 H        -0.278735        -2.543898         1.772168
