19
Iteration:  2818charge 0 multiplicity 1
 C        -3.170406        -1.688476         0.195331
 C        -2.012258        -0.653749         0.429767
 C        -1.512356         0.402192        -0.636916
 C        -0.733960        -0.665196        -1.333683
 C        -0.429482        -1.177584         0.055809
 C         0.075764        -2.523531         0.520916
 C         0.229824        -0.021861         0.747431
 O         1.007567         0.188546         1.625810
 O        -0.544495         1.039940         0.142552
 H        -2.802697        -2.715380         0.293547
 H        -3.978909        -1.513250         0.824157
 H        -3.533388        -1.603884        -0.832204
 H        -1.989417        -0.333279         1.528192
 H        -2.257610         1.001366        -1.058106
 H        -1.457735        -1.314045        -1.886004
 H         0.135743        -0.335283        -1.927605
 H        -0.436702        -3.362975         0.035226
 H         1.282777        -2.692364         0.389198
 H        -0.056258        -2.504200         1.642256
