19
Iteration:  4890
 C        -3.133366        -1.830159        -0.086578
 C        -2.032173        -0.881276         0.520803
 C        -1.745891         0.441798        -0.118065
 C        -0.868396        -0.344913        -1.226302
 C        -0.528127        -1.233861         0.081560
 C         0.035972        -2.603733         0.158625
 C         0.341616        -0.060729         0.716838
 O         1.456085         0.308968         1.075632
 O        -0.666876         1.052435         0.704619
 H        -2.966175        -2.829067         0.336643
 H        -3.943184        -1.210381         0.345801
 H        -3.193373        -1.880844        -1.211966
 H        -2.349064        -0.804211         1.584291
 H        -2.581905         1.143611        -0.226668
 H        -1.306857        -1.030944        -1.935663
 H        -0.045133         0.283292        -1.520447
 H        -0.645809        -3.469395        -0.007368
 H         0.902545        -2.683823        -0.561878
 H         0.356093        -2.800838         1.204183
