19
Iteration:  3771
 C        -2.984754        -1.817311         0.332187
 C        -1.963942        -0.702148         0.580965
 C        -1.732230         0.525758        -0.287194
 C        -0.990184        -0.432642        -1.404935
 C        -0.452423        -1.095310        -0.117018
 C         0.282349        -2.446860         0.029503
 C         0.193592        -0.028901         0.688655
 O         1.161841        -0.126025         1.424032
 O        -0.622822         1.067461         0.523628
 H        -3.252264        -1.733580        -0.781654
 H        -2.964839        -2.866117         0.725565
 H        -4.036785        -1.486806         0.630376
 H        -1.861270        -0.476452         1.631475
 H        -2.373084         1.385932        -0.449614
 H        -1.708709        -1.260767        -1.835826
 H        -0.388930         0.146315        -2.118472
 H         0.998927        -2.579367        -0.783316
 H         0.821248        -2.563150         0.999565
 H        -0.405354        -3.324603         0.009243
