19
Iteration:  4174charge 0 multiplicity 1
 C        -3.098754        -1.849521         0.018463
 C        -2.022828        -0.911508         0.578976
 C        -1.749151         0.451185        -0.134476
 C        -0.994239        -0.253890        -1.181796
 C        -0.517074        -1.155476         0.051169
 C         0.202550        -2.449265         0.230426
 C         0.219626        -0.000041         0.692602
 O         1.402820         0.039167         0.895730
 O        -0.615678         1.022033         0.716411
 H        -3.278887        -2.528727         0.880982
 H        -4.052110        -1.436880        -0.313362
 H        -2.644137        -2.428520        -0.838956
 H        -2.295940        -0.869894         1.638227
 H        -2.468647         1.308242        -0.264273
 H        -1.434284        -0.716712        -2.054221
 H        -0.338323         0.427855        -1.637729
 H         1.287967        -2.280320         0.198994
 H        -0.203106        -2.899230         1.225854
 H         0.038990        -3.196590        -0.644410
