19
Iteration:  1156charge 0 multiplicity 1
 C        -3.085858        -1.637729         0.577303
 C        -1.911898        -0.640371         0.868760
 C        -1.740241         0.475851        -0.235917
 C        -1.298596        -0.658884        -1.139158
 C        -0.600271        -1.173555         0.136266
 C         0.004274        -2.533078         0.109837
 C         0.400428        -0.025834         0.441798
 O         1.497495         0.003204         0.967391
 O        -0.414459         1.113553         0.139839
 H        -2.653040        -2.514726         0.130547
 H        -3.569089        -1.927831         1.549741
 H        -3.941283        -1.430883        -0.045357
 H        -1.888044        -0.346598         1.913282
 H        -2.471729         1.323282        -0.339264
 H        -2.126382        -1.313277        -1.359741
 H        -0.700130        -0.333569        -2.019468
 H         0.915068        -2.537294         0.729761
 H        -0.733815        -3.290337         0.551649
 H         0.327779        -2.832525        -0.905470
