19
Iteration:  4339
 C        -3.075732        -1.759814         0.187804
 C        -1.888564        -0.838676         0.612334
 C        -1.795945         0.398840        -0.220450
 C        -0.967413        -0.441585        -1.307076
 C        -0.488197        -1.154587         0.000483
 C         0.189631        -2.505003        -0.066438
 C         0.180133         0.043561         0.779688
 O         1.280566         0.112194         1.393627
 O        -0.558760         1.064423         0.482457
 H        -2.795166        -2.847421         0.268762
 H        -3.937904        -1.767908         0.864643
 H        -3.576803        -1.543859        -0.842143
 H        -1.897363        -0.624628         1.696645
 H        -2.623898         1.150387        -0.355623
 H        -1.502201        -1.027915        -2.026407
 H        -0.245208         0.023325        -1.917289
 H        -0.005207        -2.803596        -1.091263
 H         1.246562        -2.607501         0.199145
 H        -0.370016        -3.346192         0.410646
