19
Iteration:  3677charge 0 multiplicity 1
 C        -3.183983        -1.732460         0.007225
 C        -2.009097        -0.897139         0.592751
 C        -1.624383         0.381185        -0.183875
 C        -0.828115        -0.412644        -1.146924
 C        -0.546048        -1.255757         0.169130
 C         0.113898        -2.536914         0.142123
 C         0.236964         0.036585         0.713222
 O         1.401418         0.202773         1.003475
 O        -0.685517         1.065588         0.618098
 H        -3.998527        -1.059491        -0.208123
 H        -2.813481        -2.426666        -0.706939
 H        -3.606136        -2.399441         0.774183
 H        -2.170570        -0.557691         1.657126
 H        -2.250782         1.094521        -0.729668
 H        -1.568473        -0.867384        -1.790634
 H        -0.101068         0.131963        -1.802084
 H         1.222805        -2.486640        -0.016750
 H        -0.095975        -3.141234         0.996691
 H        -0.294684        -3.234383        -0.588651
