19
Iteration:  1177charge 0 multiplicity 1
 C        -3.203344        -1.573211         0.740272
 C        -1.915716        -0.656624         0.818674
 C        -1.741528         0.400738        -0.236083
 C        -1.187294        -0.574366        -1.255590
 C        -0.509911        -1.200243         0.074111
 C         0.172366        -2.577155         0.115294
 C         0.286404        -0.010284         0.520111
 O         1.407215        -0.050220         0.947928
 O        -0.451162         1.100652         0.151835
 H        -3.141495        -2.465085         0.096209
 H        -3.753805        -1.743297         1.693107
 H        -3.960103        -0.940081         0.246013
 H        -1.677282        -0.233506         1.789938
 H        -2.453623         1.256539        -0.416840
 H        -1.919865        -1.200838        -1.723665
 H        -0.496587        -0.052828        -1.963813
 H         1.250481        -2.527937         0.154197
 H        -0.204426        -3.162179         1.024517
 H        -0.054798        -3.110992        -0.788753
