19
Iteration:  3421charge 0 multiplicity 1
 C        -3.171773        -1.728953         0.100693
 C        -1.986692        -0.890077         0.506676
 C        -1.690921         0.417017        -0.344678
 C        -0.774960        -0.476867        -1.177433
 C        -0.546407        -1.212704         0.162880
 C         0.009789        -2.564057         0.211255
 C         0.218276         0.020454         0.778862
 O         1.387911         0.219438         1.068417
 O        -0.592904         1.090022         0.552697
 H        -3.368974        -1.828524        -0.968370
 H        -3.086103        -2.793846         0.492688
 H        -4.033663        -1.363486         0.639775
 H        -2.212728        -0.558408         1.544753
 H        -2.402118         1.142912        -0.715558
 H        -1.062391        -1.196295        -1.956820
 H         0.075367         0.042017        -1.673969
 H         1.075799        -2.447258         0.542473
 H        -0.616716        -3.166433         1.016473
 H        -0.086524        -3.214513        -0.668885
