19
Iteration:  3794charge 0 multiplicity 1
 C        -3.057628        -1.754797         0.401167
 C        -1.861630        -0.828122         0.565269
 C        -1.669189         0.455573        -0.324357
 C        -0.959228        -0.392988        -1.302086
 C        -0.534815        -1.181844        -0.019146
 C         0.254736        -2.469409        -0.198342
 C         0.224567        -0.005371         0.696568
 O         1.101832        -0.018282         1.548726
 O        -0.583464         1.112441         0.425981
 H        -3.120669        -2.426935        -0.521372
 H        -3.135403        -2.436554         1.283096
 H        -4.128272        -1.345890         0.370237
 H        -1.861152        -0.598745         1.630923
 H        -2.402704         1.173675        -0.654224
 H        -1.795514        -0.959489        -1.864943
 H        -0.186144         0.077058        -1.893871
 H         1.005491        -2.387224        -1.038223
 H         0.734016        -2.835270         0.754346
 H        -0.482004        -3.303981        -0.431121
