19
Iteration:   599
 C        -3.179568        -1.437413         1.095798
 C        -1.813195        -0.718168         0.923191
 C        -1.738019         0.402717        -0.106813
 C        -1.352354        -0.638524        -1.167352
 C        -0.581689        -1.207983         0.097634
 C         0.034264        -2.571445         0.130473
 C         0.416061        -0.034802         0.300323
 O         1.591574         0.052129         0.484389
 O        -0.523277         1.037137         0.120359
 H        -2.958414        -2.377952         1.668198
 H        -3.775377        -0.785379         1.720210
 H        -3.855242        -1.668445         0.266118
 H        -1.389681        -0.399277         1.875594
 H        -2.489430         1.194591        -0.257653
 H        -2.113245        -1.409515        -1.480961
 H        -0.749640        -0.219927        -1.986955
 H        -0.727033        -3.397857        -0.186273
 H         0.851637        -2.710926        -0.660429
 H         0.389284        -2.849460         1.094698
