19
Iteration:  3212
 C        -3.176099        -1.679492        -0.092619
 C        -2.084302        -0.858207         0.526370
 C        -1.684273         0.457469        -0.270603
 C        -0.777479        -0.479344        -1.221836
 C        -0.577779        -1.236956         0.139486
 C         0.133917        -2.474080         0.461406
 C         0.237935        -0.052755         0.724893
 O         1.366170         0.144876         1.141033
 O        -0.630232         1.040006         0.465206
 H        -4.033872        -1.738444         0.568355
 H        -3.692130        -1.182419        -0.966290
 H        -2.784868        -2.578572        -0.644922
 H        -2.228175        -0.798899         1.620925
 H        -2.498525         1.196249        -0.611042
 H        -1.181693        -1.184977        -1.993666
 H         0.254636        -0.085300        -1.464045
 H         0.029747        -3.263092        -0.224727
 H         1.194355        -2.284537         0.428379
 H        -0.013956        -2.818833         1.432005
