19
Iteration:  3265charge 0 multiplicity 1
 C        -3.087322        -1.710541         0.061040
 C        -1.987090        -0.797161         0.545090
 C        -1.634606         0.375472        -0.339120
 C        -0.872165        -0.445690        -1.273794
 C        -0.528825        -1.204003         0.116067
 C         0.081045        -2.502818         0.290026
 C         0.207279         0.038586         0.691071
 O         1.208187         0.090205         1.344361
 O        -0.530205         1.044492         0.394820
 H        -3.935120        -1.906700         0.745324
 H        -3.559368        -1.328619        -0.829703
 H        -2.680552        -2.742222        -0.133125
 H        -2.103527        -0.549871         1.591930
 H        -2.438740         1.105075        -0.678183
 H        -1.397006        -0.969037        -2.091528
 H        -0.023016        -0.036389        -1.795578
 H         0.381659        -3.008217        -0.636290
 H         1.011273        -2.331150         0.977346
 H        -0.557959        -3.095135         0.990301
