19
Iteration:  4113
 C        -3.117930        -1.810841         0.162204
 C        -1.972570        -0.963419         0.622821
 C        -1.742340         0.501462        -0.179401
 C        -0.945913        -0.376949        -1.277163
 C        -0.512079        -1.167628         0.029847
 C         0.103628        -2.574715        -0.001879
 C         0.296101         0.024389         0.700710
 O         1.386065         0.209486         1.234693
 O        -0.655025         1.029365         0.564719
 H        -2.951993        -2.914097         0.255514
 H        -4.145221        -1.658028         0.648602
 H        -3.230859        -1.662920        -0.914169
 H        -2.091538        -0.656514         1.703116
 H        -2.466355         1.344411        -0.222238
 H        -1.371301        -1.062555        -2.055895
 H         0.010291         0.224278        -1.625408
 H         0.937114        -2.565884        -0.702294
 H         0.559083        -2.808097         0.911133
 H        -0.566616        -3.307773        -0.417805
