19
Iteration:  4129charge 0 multiplicity 1
 C        -3.057152        -1.815551         0.008219
 C        -1.994738        -0.840514         0.632550
 C        -1.712769         0.368776        -0.122286
 C        -0.975765        -0.296143        -1.207227
 C        -0.515266        -1.195045         0.087440
 C         0.167015        -2.553567         0.085711
 C         0.228461        -0.021236         0.710635
 O         1.366964         0.155875         1.066823
 O        -0.637334         1.079708         0.634919
 H        -2.917896        -2.838088         0.404132
 H        -4.030367        -1.468956         0.411815
 H        -3.129868        -1.758856        -1.104165
 H        -1.888147        -0.854405         1.728162
 H        -2.470552         1.029941        -0.541665
 H        -1.755074        -0.733452        -1.845659
 H        -0.380561         0.187708        -1.901807
 H         1.143486        -2.633814        -0.456977
 H         0.263360        -2.803955         1.206736
 H        -0.497462        -3.313275        -0.412934
