19
Iteration:  1568charge 0 multiplicity 1
 C        -3.114949        -1.743641         0.318810
 C        -2.075007        -0.611137         0.527187
 C        -1.619247         0.479923        -0.378395
 C        -0.876514        -0.560452        -1.309001
 C        -0.639043        -1.149880         0.161551
 C        -0.001254        -2.525940         0.413423
 C         0.230225        -0.049902         0.663469
 O         1.358194         0.063456         1.066593
 O        -0.502092         1.031720         0.371913
 H        -2.653639        -2.606987        -0.254102
 H        -3.347140        -2.178704         1.313519
 H        -3.868946        -1.508211        -0.414942
 H        -2.007815        -0.409128         1.629969
 H        -2.075634         1.324889        -0.789506
 H        -1.358742        -1.229409        -2.138134
 H         0.038168        -0.145485        -1.728698
 H         1.030194        -2.380243         0.668293
 H        -0.581363        -2.867021         1.357279
 H        -0.038569        -3.249002        -0.384667
