19
Iteration:  1154charge 0 multiplicity 1
 C        -3.075969        -1.661169         0.575568
 C        -1.896355        -0.624274         0.854911
 C        -1.719159         0.475522        -0.225944
 C        -1.311012        -0.675119        -1.129509
 C        -0.612688        -1.182058         0.141773
 C        -0.008822        -2.526926         0.104526
 C         0.397846        -0.027712         0.437232
 O         1.494188         0.014396         0.961158
 O        -0.414525         1.118548         0.146299
 H        -2.639450        -2.589333         0.080805
 H        -3.629811        -1.925661         1.515273
 H        -3.968051        -1.404203        -0.060657
 H        -1.808214        -0.282079         1.901246
 H        -2.424095         1.338986        -0.286360
 H        -2.137748        -1.272455        -1.410606
 H        -0.684060        -0.343993        -1.999362
 H         0.840264        -2.566415         0.760249
 H        -0.788069        -3.279307         0.539628
 H         0.380601        -2.800978        -0.834164
