19
Iteration:  2547
 C        -3.085911        -1.755434        -0.064583
 C        -2.094571        -0.719929         0.411638
 C        -1.591286         0.432079        -0.472679
 C        -0.714787        -0.705817        -1.214278
 C        -0.514948        -1.165320         0.227426
 C        -0.096014        -2.607321         0.560035
 C         0.216089         0.105430         0.801655
 O         1.211381         0.167829         1.462742
 O        -0.452807         1.184947         0.136681
 H        -2.658079        -2.541120        -0.728840
 H        -3.117324        -2.335929         0.849187
 H        -4.082498        -1.346605        -0.370855
 H        -2.431891        -0.400606         1.360484
 H        -2.287370         1.097082        -0.931116
 H        -1.435903        -1.431947        -1.616029
 H         0.165963        -0.440816        -1.799881
 H        -0.897677        -3.197231         0.301630
 H         0.665372        -3.003523        -0.159645
 H         0.209693        -2.695612         1.561349
