19
Iteration:  1886charge 0 multiplicity 1
 C        -3.077381        -1.662069         0.213556
 C        -1.980445        -0.620942         0.433499
 C        -1.448164         0.382823        -0.591249
 C        -0.705659        -0.695600        -1.345025
 C        -0.489499        -1.202182         0.100842
 C        -0.128665        -2.646398         0.460619
 C         0.200258        -0.000054         0.750059
 O         1.081813         0.281767         1.534747
 O        -0.515407         1.037355         0.204924
 H        -3.240173        -2.102082        -0.783188
 H        -2.999495        -2.431770         1.045691
 H        -4.001143        -1.121106         0.492499
 H        -2.077731        -0.202942         1.467122
 H        -2.080470         1.242171        -1.016826
 H        -1.514738        -1.257112        -1.787187
 H         0.221108        -0.392342        -1.977996
 H         0.952770        -2.788000         0.270673
 H        -0.438135        -3.040219         1.480360
 H        -0.642704        -3.333749        -0.247159
