19
Iteration:   759charge 0 multiplicity 1
 C        -3.126432        -1.411261         1.121108
 C        -1.849153        -0.579307         0.916630
 C        -1.761169         0.456196        -0.241442
 C        -1.305386        -0.678832        -1.213980
 C        -0.587939        -1.269996         0.101619
 C         0.123618        -2.626195         0.028596
 C         0.336596        -0.060410         0.309645
 O         1.491932        -0.027854         0.673413
 O        -0.519198         1.062888         0.168371
 H        -2.750890        -2.382010         1.504374
 H        -3.860567        -0.956782         1.837554
 H        -3.674882        -1.726563         0.203213
 H        -1.642732        -0.184665         1.930948
 H        -2.404219         1.311463        -0.548750
 H        -2.160175        -1.252831        -1.655722
 H        -0.583021        -0.264543        -1.969894
 H         1.137448        -2.217788        -0.185838
 H         0.316806        -3.221769         0.988578
 H        -0.209894        -3.294573        -0.822588
