19
Iteration:  4427
 C        -3.025356        -1.840591        -0.056131
 C        -1.974089        -0.816081         0.575608
 C        -1.736844         0.438231        -0.147934
 C        -0.910609        -0.277868        -1.300953
 C        -0.564999        -1.141314         0.003172
 C         0.179344        -2.490966         0.200140
 C         0.162983        -0.048493         0.756128
 O         1.390333        -0.017166         1.094495
 O        -0.705480         1.099026         0.728225
 H        -3.026472        -2.454263         0.867958
 H        -4.024544        -1.540074        -0.384017
 H        -2.661815        -2.492421        -0.914545
 H        -2.015885        -0.741379         1.692922
 H        -2.482406         1.190616        -0.325564
 H        -1.596880        -0.868199        -1.854289
 H        -0.356902         0.311727        -1.989939
 H        -0.447615        -3.291805         0.092168
 H         0.856425        -2.485714        -0.616352
 H         0.915255        -2.475133         0.965274
