19
Iteration:  1821charge 0 multiplicity 1
 C        -3.196528        -1.553033         0.037762
 C        -2.039124        -0.704217         0.450497
 C        -1.541655         0.418630        -0.481477
 C        -0.853776        -0.656795        -1.311159
 C        -0.546993        -1.300224         0.076298
 C         0.145666        -2.576936         0.723243
 C         0.231430         0.030393         0.682482
 O         1.259668         0.075817         1.300366
 O        -0.575963         1.120511         0.329306
 H        -3.058333        -2.640834        -0.251928
 H        -4.061311        -1.483000         0.815059
 H        -3.808449        -1.089528        -0.811053
 H        -2.164744        -0.351053         1.504529
 H        -2.336690         0.950828        -1.117369
 H        -1.465543        -1.281128        -1.968350
 H         0.169836        -0.384972        -1.786172
 H         0.642887        -2.068643         1.558073
 H        -0.447033        -3.463601         0.893949
 H         0.889466        -2.884383         0.002193
