19
Iteration:   341
 C        -2.937884        -1.575898         1.184100
 C        -1.679292        -0.622870         1.089545
 C        -1.769282         0.473367        -0.007433
 C        -1.552499        -0.633720        -1.025630
 C        -0.590344        -1.196640         0.065939
 C        -0.161404        -2.650462         0.077166
 C         0.376074         0.008013         0.149381
 O         1.560607         0.034672         0.287157
 O        -0.390992         1.072935         0.045679
 H        -3.864780        -1.062199         0.828190
 H        -2.750934        -2.498051         0.672240
 H        -3.121008        -1.759656         2.246671
 H        -1.296848        -0.231984         2.054486
 H        -2.535854         1.268536         0.039982
 H        -2.340602        -1.370188        -1.056019
 H        -1.100068        -0.299113        -1.917174
 H        -0.481615        -3.101629        -0.801052
 H         0.882574        -2.825307         0.203610
 H        -0.623100        -3.124015         1.001810
