19
Iteration:  4051
 C        -3.032300        -1.826606         0.479476
 C        -1.869806        -0.801244         0.554867
 C        -1.688498         0.416689        -0.235719
 C        -1.078210        -0.320903        -1.355367
 C        -0.456437        -1.115620        -0.093642
 C         0.244843        -2.394339        -0.150003
 C         0.209354        -0.006450         0.657080
 O         1.011379        -0.114911         1.545759
 O        -0.492277         1.082936         0.362531
 H        -2.618899        -2.736384         0.917536
 H        -4.066214        -1.404660         0.737994
 H        -3.003790        -2.100527        -0.583970
 H        -1.832837        -0.382077         1.628036
 H        -2.433082         1.172126        -0.308915
 H        -1.768873        -1.027766        -1.815341
 H        -0.398269         0.032989        -2.088351
 H         1.127498        -2.206566        -0.862473
 H         0.756338        -2.606045         0.832451
 H        -0.337196        -3.313303        -0.216125
