19
Iteration:  1099
 C        -3.214927        -1.579848         0.799804
 C        -1.918937        -0.808564         0.849563
 C        -1.738061         0.386249        -0.261985
 C        -1.029173        -0.508764        -1.358058
 C        -0.544929        -1.185520         0.018458
 C        -0.047420        -2.554539         0.266849
 C         0.342585         0.001032         0.428439
 O         1.513607         0.046149         0.708376
 O        -0.510890         1.082791         0.376859
 H        -3.151613        -2.726765         0.688849
 H        -3.715376        -1.591335         1.788963
 H        -3.894583        -1.179309         0.008723
 H        -1.615245        -0.457787         1.858789
 H        -2.420511         1.247867        -0.390337
 H        -1.705068        -1.117863        -1.941604
 H        -0.318722        -0.037754        -2.083993
 H        -0.726270        -3.156935         0.879646
 H         0.078075        -3.187449        -0.736134
 H         0.934809        -2.518296         0.670432
