19
Iteration:  2959
 C        -3.125423        -1.736270        -0.077595
 C        -2.142033        -0.691732         0.386784
 C        -1.568943         0.412258        -0.435787
 C        -0.696479        -0.574672        -1.260561
 C        -0.531507        -1.191649         0.177002
 C         0.107642        -2.514797         0.654156
 C         0.145645         0.050880         0.673496
 O         1.259155         0.050155         1.183708
 O        -0.629953         1.114274         0.494519
 H        -4.018731        -1.352698        -0.692571
 H        -2.628300        -2.476453        -0.686505
 H        -3.469454        -2.184308         0.908775
 H        -2.374182        -0.362375         1.450993
 H        -2.239414         1.064231        -0.886879
 H        -1.261034        -1.401467        -1.853084
 H         0.173187        -0.091853        -1.812046
 H        -0.238163        -3.358208         0.173135
 H         1.205074        -2.639849         0.472321
 H         0.196802        -2.533294         1.710823
