19
Iteration:  4523
 C        -3.066191        -1.842329         0.368243
 C        -1.937911        -0.826784         0.520829
 C        -1.700548         0.492658        -0.374841
 C        -0.938282        -0.341491        -1.338029
 C        -0.438879        -1.112290        -0.045065
 C         0.246960        -2.461657        -0.105599
 C         0.137736        -0.060432         0.751898
 O         1.144211        -0.084384         1.514952
 O        -0.589466         1.145969         0.477100
 H        -2.821121        -2.770545         0.876561
 H        -3.787355        -1.438405         1.058394
 H        -3.543403        -1.974423        -0.658657
 H        -1.750375        -0.766587         1.634537
 H        -2.579426         1.098735        -0.634945
 H        -1.491448        -0.946331        -2.076277
 H        -0.287063         0.311181        -1.961503
 H        -0.415763        -3.188215        -0.589623
 H         1.209957        -2.340467        -0.693684
 H         0.635428        -2.804784         0.900885
