19
Iteration:  4738charge 0 multiplicity 1
 C        -3.069023        -1.797741         0.349097
 C        -1.924585        -0.824362         0.522244
 C        -1.749715         0.524293        -0.304243
 C        -0.846439        -0.416718        -1.295076
 C        -0.389883        -1.108720        -0.049405
 C         0.166795        -2.525504        -0.186089
 C         0.183457        -0.009228         0.741199
 O         1.114444         0.052057         1.508979
 O        -0.595508         1.046186         0.517100
 H        -2.642816        -2.702047         0.854111
 H        -4.059978        -1.609752         0.932775
 H        -3.229217        -2.105328        -0.764022
 H        -2.103962        -0.604523         1.662478
 H        -2.351511         1.440407        -0.390264
 H        -1.478103        -1.047359        -1.940207
 H        -0.127829        -0.138511        -2.058622
 H        -0.630820        -3.162508        -0.562097
 H         0.880660        -2.389820        -1.018204
 H         0.674444        -3.014875         0.596153
