19
Iteration:   319
 C        -2.891948        -1.474043         1.252497
 C        -1.672615        -0.538055         1.122477
 C        -1.789233         0.475260        -0.037012
 C        -1.678754        -0.691409        -1.075826
 C        -0.625516        -1.257689         0.016172
 C        -0.076030        -2.655872         0.016574
 C         0.449821        -0.039664         0.082130
 O         1.635770        -0.027269         0.341608
 O        -0.506796         1.115992         0.147329
 H        -3.519845        -1.282649         0.368064
 H        -2.508592        -2.455147         1.149237
 H        -3.523243        -1.352965         2.126297
 H        -1.158630        -0.154772         2.018613
 H        -2.643067         1.185755        -0.052710
 H        -2.537852        -1.339921        -1.153685
 H        -1.209103        -0.510109        -1.994475
 H         0.206126        -2.927299        -0.935405
 H         0.778090        -2.700917         0.664398
 H        -0.832743        -3.365249         0.464134
