19
Iteration:  3134charge 0 multiplicity 1
 C        -3.026087        -1.752030         0.067650
 C        -1.959857        -0.746851         0.577089
 C        -1.662222         0.482980        -0.441274
 C        -0.903670        -0.472535        -1.264782
 C        -0.506262        -1.197433         0.132280
 C         0.101369        -2.565099         0.283221
 C         0.225526         0.029716         0.756358
 O         1.090331         0.056089         1.573441
 O        -0.477302         1.103739         0.151998
 H        -3.106154        -2.654407         0.783642
 H        -3.969109        -1.173032         0.038908
 H        -2.833989        -2.341617        -0.903454
 H        -2.144886        -0.522704         1.636731
 H        -2.434763         1.261010        -0.570998
 H        -1.562377        -1.240276        -1.838657
 H        -0.133246        -0.101365        -1.943151
 H        -0.555832        -3.358964         0.458022
 H         0.653908        -2.781621        -0.657619
 H         0.736925        -2.644941         1.114980
