19
Iteration:  1231
 C        -3.236104        -1.499792         0.759395
 C        -1.958635        -0.698317         0.722901
 C        -1.759391         0.374786        -0.279195
 C        -1.081429        -0.564101        -1.301204
 C        -0.496548        -1.216560         0.028966
 C         0.134435        -2.619473         0.150334
 C         0.364897        -0.012154         0.500873
 O         1.465264         0.024507         1.006607
 O        -0.566303         1.095745         0.239190
 H        -3.617371        -1.785835        -0.288700
 H        -3.081013        -2.434565         1.384792
 H        -4.111158        -0.892152         1.126828
 H        -1.719758        -0.494536         1.787893
 H        -2.425799         1.174644        -0.674910
 H        -1.835908        -1.255207        -1.639188
 H        -0.359317        -0.197000        -2.066636
 H         0.138885        -2.999711        -0.845185
 H         1.200941        -2.664460         0.556476
 H        -0.484182        -3.209796         0.771783
