19
Iteration:  3969charge 0 multiplicity 1
 C        -3.176066        -1.795024         0.133995
 C        -1.962882        -0.928973         0.610465
 C        -1.689694         0.444050        -0.115425
 C        -0.882548        -0.386954        -1.269820
 C        -0.486049        -1.218644         0.048111
 C         0.091407        -2.646469        -0.043315
 C         0.274361         0.086293         0.721549
 O         1.362265         0.225891         1.177978
 O        -0.635127         1.122352         0.620557
 H        -3.409312        -2.359374         1.072491
 H        -4.122860        -1.294125        -0.068644
 H        -3.017659        -2.572661        -0.672233
 H        -2.120527        -0.942283         1.675991
 H        -2.454258         1.223164        -0.357037
 H        -1.561323        -1.025696        -1.944643
 H         0.003698         0.007088        -1.854305
 H         0.916040        -2.543826        -0.643926
 H         0.340525        -3.229911         0.820699
 H        -0.540352        -3.136298        -0.772572
