19
Iteration:   602
 C        -3.156091        -1.437796         1.117568
 C        -1.809131        -0.710087         0.908746
 C        -1.753448         0.403061        -0.137613
 C        -1.335040        -0.649551        -1.176770
 C        -0.574432        -1.202154         0.089402
 C         0.021483        -2.538454         0.118110
 C         0.402568        -0.055495         0.310516
 O         1.579241         0.051872         0.471646
 O        -0.511793         1.030001         0.162128
 H        -3.023127        -2.384020         1.682977
 H        -3.873186        -0.775605         1.637803
 H        -3.765291        -1.653225         0.223953
 H        -1.312242        -0.453330         1.868418
 H        -2.522409         1.145632        -0.216614
 H        -2.128874        -1.328078        -1.503541
 H        -0.771085        -0.395041        -2.040036
 H        -0.719469        -3.327178        -0.063743
 H         0.746895        -2.709278        -0.635413
 H         0.441067        -2.807145         1.153923
