19
Iteration:  1414charge 0 multiplicity 1
 C        -3.105472        -1.706180         0.550804
 C        -1.855252        -0.710649         0.633328
 C        -1.575631         0.465004        -0.363426
 C        -1.061376        -0.594643        -1.376711
 C        -0.568130        -1.203225         0.059129
 C        -0.042144        -2.529803         0.356896
 C         0.287333         0.027260         0.518940
 O         1.271768        -0.009296         1.192165
 O        -0.471338         1.165742         0.211149
 H        -3.233431        -2.188193         1.550644
 H        -3.902269        -1.218894         0.092804
 H        -2.872846        -2.489243        -0.190937
 H        -1.933283        -0.329410         1.683807
 H        -2.423267         1.110214        -0.609434
 H        -1.839467        -1.254513        -1.741274
 H        -0.395292        -0.137088        -2.198701
 H         0.268978        -3.056484        -0.560291
 H         0.939353        -2.352222         1.029269
 H        -0.674964        -3.219202         0.977236
