19
Iteration:  1335
 C        -3.262190        -1.573645         0.520420
 C        -2.018433        -0.658729         0.729059
 C        -1.717947         0.366369        -0.333561
 C        -0.975501        -0.608225        -1.260758
 C        -0.503637        -1.194404         0.119262
 C         0.152361        -2.568460         0.320727
 C         0.288857         0.038110         0.555175
 O         1.459855        -0.003888         0.897974
 O        -0.575722         1.061592         0.350071
 H        -4.060301        -0.837737         0.500567
 H        -3.403007        -2.107497        -0.385287
 H        -3.318694        -2.233202         1.384238
 H        -2.224360        -0.193536         1.668410
 H        -2.381286         1.163093        -0.757327
 H        -1.514149        -1.185494        -2.031556
 H        -0.140345        -0.078972        -1.800945
 H         0.821879        -2.735462         1.212241
 H        -0.580096        -3.336683         0.092910
 H         0.785340        -2.656741        -0.619077
