19
Iteration:  3271
 C        -3.110957        -1.736656         0.123720
 C        -2.001280        -0.817074         0.540771
 C        -1.654611         0.392539        -0.391954
 C        -0.830424        -0.404927        -1.327522
 C        -0.498690        -1.175310         0.110869
 C         0.080144        -2.551969         0.304824
 C         0.188706        -0.008295         0.713593
 O         1.192681         0.119297         1.364965
 O        -0.521149         1.072321         0.384878
 H        -3.879465        -1.921855         0.906487
 H        -3.489175        -1.319383        -0.837277
 H        -2.744252        -2.742662        -0.060261
 H        -2.043208        -0.486373         1.611843
 H        -2.372971         1.149863        -0.518381
 H        -1.380712        -1.090417        -2.040011
 H         0.142827        -0.002579        -1.706957
 H         0.270280        -2.985442        -0.715991
 H         1.032456        -2.417077         0.814315
 H        -0.671064        -3.288092         0.709104
