19
Iteration:  2434charge 0 multiplicity 1
 C        -3.107146        -1.584652        -0.054097
 C        -1.985620        -0.682763         0.514563
 C        -1.560426         0.311114        -0.503355
 C        -0.805510        -0.698863        -1.260594
 C        -0.463465        -1.225020         0.189242
 C         0.087077        -2.580108         0.590907
 C         0.189825         0.020903         0.733336
 O         1.038342         0.116642         1.526971
 O        -0.473211         1.183797         0.124111
 H        -3.061795        -2.080950        -1.063499
 H        -3.140567        -2.581086         0.561838
 H        -4.076116        -0.969829        -0.062274
 H        -2.235058        -0.147893         1.464532
 H        -2.123729         1.028634        -1.118828
 H        -1.581375        -1.322636        -1.690778
 H         0.028212        -0.336078        -1.898098
 H        -0.024326        -3.313912        -0.227622
 H         1.130958        -2.529711         0.742534
 H        -0.529478        -2.937084         1.405727
