19
Iteration:  1398
 C        -3.059915        -1.585253         0.442150
 C        -1.865377        -0.738955         0.730790
 C        -1.762660         0.393336        -0.302042
 C        -1.101996        -0.603479        -1.292937
 C        -0.495044        -1.171619        -0.001539
 C         0.001634        -2.576334         0.355728
 C         0.300704         0.002474         0.530135
 O         1.319205         0.079544         1.189320
 O        -0.453656         1.087020         0.162697
 H        -3.554518        -1.779676         1.408002
 H        -3.846350        -1.050046        -0.235461
 H        -2.923732        -2.610592         0.048920
 H        -1.653164        -0.456116         1.748166
 H        -2.417028         1.257998        -0.496802
 H        -1.851569        -1.272611        -1.806483
 H        -0.335944        -0.241237        -1.968769
 H         0.678265        -3.025261        -0.402700
 H         0.468750        -2.623539         1.281665
 H        -0.926265        -3.165762         0.277930
