19
Iteration:   780
 C        -2.998632        -1.484290         0.986534
 C        -1.759331        -0.647955         0.949585
 C        -1.722774         0.435673        -0.155716
 C        -1.401596        -0.752730        -1.227616
 C        -0.598737        -1.181749         0.008115
 C         0.015557        -2.501494         0.084840
 C         0.310405        -0.073977         0.346144
 O         1.439012         0.017546         0.723236
 O        -0.402847         1.070170         0.116309
 H        -3.003638        -2.564851         1.135873
 H        -3.701189        -1.017810         1.737477
 H        -3.574579        -1.389620         0.040529
 H        -1.524767        -0.333948         1.987042
 H        -2.542900         1.186192        -0.270896
 H        -2.328554        -1.310354        -1.244123
 H        -0.920135        -0.523471        -2.201364
 H         0.934463        -2.561991        -0.518811
 H         0.413580        -2.729316         1.130553
 H        -0.767099        -3.343626        -0.117927
