19
Iteration:  1893
 C        -3.103620        -1.631706         0.263839
 C        -1.976704        -0.689318         0.407239
 C        -1.524228         0.402622        -0.629119
 C        -0.650381        -0.695576        -1.369755
 C        -0.457123        -1.191314         0.086195
 C        -0.143099        -2.579860         0.463893
 C         0.232381        -0.028230         0.748774
 O         1.084525         0.247096         1.558157
 O        -0.523425         1.037435         0.232864
 H        -3.309845        -2.114195        -0.700279
 H        -2.899916        -2.444508         0.927341
 H        -4.012220        -1.234044         0.644081
 H        -1.967144        -0.254913         1.411332
 H        -2.043273         1.108237        -1.252461
 H        -1.376647        -1.240761        -2.069873
 H         0.116693        -0.312965        -1.990357
 H         0.903575        -2.812291         0.265702
 H        -0.384758        -2.731060         1.600097
 H        -0.843756        -3.211455        -0.096170
