19
Iteration:   937charge 0 multiplicity 1
 C        -3.068114        -1.574595         0.850377
 C        -1.863788        -0.752278         0.918348
 C        -1.716312         0.422017        -0.176819
 C        -1.357185        -0.551266        -1.232522
 C        -0.635361        -1.184862         0.062320
 C         0.065658        -2.530920         0.091520
 C         0.335847        -0.027281         0.382923
 O         1.481549         0.020861         0.747387
 O        -0.408874         1.046873         0.200977
 H        -3.471257        -1.720597         1.855722
 H        -3.856590        -1.011002         0.371928
 H        -2.882188        -2.486476         0.309818
 H        -1.756155        -0.370969         1.933423
 H        -2.398903         1.292582        -0.263301
 H        -2.173122        -1.240841        -1.512297
 H        -0.699384        -0.302612        -2.096065
 H         0.815493        -2.430586         0.887446
 H        -0.669431        -3.306024         0.447238
 H         0.499856        -2.782523        -0.842058
