19
Iteration:  2573charge 0 multiplicity 1
 C        -3.091506        -1.646703         0.129624
 C        -2.029931        -0.670517         0.522752
 C        -1.524436         0.456974        -0.613433
 C        -0.699387        -0.671923        -1.415525
 C        -0.574117        -1.200220         0.127341
 C         0.087342        -2.473521         0.584673
 C         0.182844        -0.037786         0.690085
 O         1.049588         0.069785         1.568218
 O        -0.532367         1.054241         0.198269
 H        -2.683248        -2.357760        -0.540160
 H        -3.454641        -2.235845         0.979621
 H        -3.879779        -1.145434        -0.364696
 H        -2.188710        -0.081079         1.475226
 H        -2.231568         1.212511        -1.088549
 H        -1.354213        -1.341189        -2.046542
 H         0.253474        -0.390312        -1.892777
 H        -0.571430        -3.449320         0.389632
 H         0.902332        -2.539342        -0.118890
 H         0.401784        -2.394407         1.687138
