19
Iteration:  1550charge 0 multiplicity 1
 C        -3.148495        -1.748921         0.268861
 C        -2.081355        -0.646404         0.598225
 C        -1.700392         0.430423        -0.468830
 C        -0.868591        -0.535770        -1.229618
 C        -0.588726        -1.165462         0.202370
 C         0.068923        -2.496201         0.418324
 C         0.271462         0.014043         0.665181
 O         1.415946        -0.085128         1.072788
 O        -0.504817         1.149102         0.331974
 H        -2.883736        -2.746539        -0.042903
 H        -3.782933        -1.932642         1.201320
 H        -3.955081        -1.343167        -0.389253
 H        -2.425280        -0.211676         1.563945
 H        -2.511529         1.129182        -0.884206
 H        -1.483313        -1.293848        -1.763012
 H        -0.107045        -0.162677        -1.893907
 H         0.966670        -2.216171         1.074717
 H        -0.519540        -3.352622         0.873447
 H         0.385550        -2.775637        -0.630302
