19
Iteration:  3828charge 0 multiplicity 1
 C        -3.162658        -1.745640         0.343873
 C        -1.955291        -0.806437         0.639025
 C        -1.663295         0.327389        -0.237481
 C        -0.944703        -0.427552        -1.223390
 C        -0.389738        -1.170364        -0.059164
 C         0.200217        -2.510312        -0.303680
 C         0.291036         0.029867         0.681026
 O         1.134180         0.159206         1.578006
 O        -0.574055         1.032201         0.420368
 H        -2.729269        -2.634002        -0.198820
 H        -3.496691        -2.119355         1.308986
 H        -4.000839        -1.191407        -0.214129
 H        -1.759970        -0.548585         1.687623
 H        -2.428700         1.035587        -0.543619
 H        -1.603192        -1.006130        -1.917834
 H        -0.424863         0.231042        -1.876156
 H         1.137200        -2.779021        -0.915874
 H         0.169890        -3.119934         0.638538
 H        -0.645610        -2.952680        -0.961378
