19
Iteration:  2051
 C        -3.086041        -1.836488        -0.016988
 C        -2.136341        -0.693705         0.395053
 C        -1.485668         0.495625        -0.608542
 C        -0.684493        -0.617149        -1.284842
 C        -0.624889        -1.132119         0.214354
 C        -0.044696        -2.410197         0.629592
 C         0.151764        -0.052440         0.775553
 O         1.181461         0.001702         1.432932
 O        -0.471756         1.163474         0.262196
 H        -2.758097        -2.287622        -0.917416
 H        -3.099936        -2.559706         0.779476
 H        -4.024167        -1.355459        -0.199490
 H        -2.376325        -0.299272         1.410554
 H        -2.080370         1.262043        -1.064946
 H        -1.281506        -1.288286        -1.949595
 H         0.361003        -0.479874        -1.700368
 H        -0.749533        -3.310543         0.471893
 H         0.923796        -2.665823         0.144281
 H         0.335946        -2.357745         1.700953
