19
Iteration:  3081
 C        -3.201854        -1.567697         0.361078
 C        -1.976964        -0.718865         0.378253
 C        -1.617625         0.380063        -0.523475
 C        -0.724940        -0.603910        -1.438075
 C        -0.449000        -1.239835        -0.007746
 C         0.289101        -2.515192         0.285676
 C         0.136295        -0.007482         0.793742
 O         1.025152         0.039021         1.602331
 O        -0.578791         1.094509         0.300225
 H        -2.930671        -2.671066         0.176830
 H        -3.758538        -1.503148         1.346736
 H        -3.935551        -1.273474        -0.517097
 H        -2.031919        -0.376563         1.472159
 H        -2.354183         1.231867        -0.796192
 H        -1.365996        -1.301969        -2.152495
 H         0.078191        -0.038683        -1.975962
 H        -0.432525        -3.305717        -0.010875
 H         1.151033        -2.643242        -0.408373
 H         0.657269        -2.642829         1.283405
