19
Iteration:  1946charge 0 multiplicity 1
 C        -3.129577        -1.636397         0.108364
 C        -2.062603        -0.590275         0.457145
 C        -1.560301         0.438895        -0.628227
 C        -0.703839        -0.751869        -1.324683
 C        -0.612339        -1.215340         0.112386
 C         0.130273        -2.499476         0.593739
 C         0.156902        -0.023079         0.718901
 O         1.062998         0.087690         1.530992
 O        -0.443680         1.051634         0.212980
 H        -3.451832        -1.676353        -0.969835
 H        -2.939187        -2.639483         0.476936
 H        -4.088976        -1.286855         0.625673
 H        -2.178500        -0.099101         1.424795
 H        -2.073595         1.286911        -1.031651
 H        -1.379385        -1.330901        -2.025711
 H         0.131281        -0.492214        -1.881870
 H         0.648535        -3.003058        -0.200129
 H         0.905699        -2.055671         1.168940
 H        -0.424238        -3.264996         1.105964
