19
Iteration:  4465
 C        -3.135261        -1.780016         0.049271
 C        -1.970295        -0.887944         0.597299
 C        -1.735670         0.405110        -0.170564
 C        -0.961092        -0.362606        -1.242777
 C        -0.497843        -1.180978         0.049081
 C         0.167953        -2.513877        -0.082120
 C         0.238037         0.042776         0.731974
 O         1.331164         0.105667         1.407503
 O        -0.577878         1.121182         0.516515
 H        -3.259798        -2.692830         0.643577
 H        -4.170016        -1.442163        -0.229049
 H        -2.649493        -2.271753        -0.776873
 H        -1.923921        -0.947382         1.679938
 H        -2.735546         0.902872        -0.182506
 H        -1.692763        -0.987817        -1.849528
 H        -0.214220         0.253432        -1.836834
 H        -0.476712        -3.501563         0.079526
 H         0.549667        -2.594109        -1.162350
 H         0.938863        -2.669784         0.725938
