19
Iteration:  3576charge 0 multiplicity 1
 C        -3.060923        -1.777611         0.343149
 C        -1.919916        -0.866385         0.595465
 C        -1.639488         0.492300        -0.364019
 C        -0.932241        -0.464532        -1.315560
 C        -0.483707        -1.223256         0.047608
 C         0.133365        -2.518106        -0.192551
 C         0.208553        -0.011620         0.763078
 O         1.084419         0.146383         1.565835
 O        -0.521651         1.117609         0.353132
 H        -3.650911        -1.887486         1.297580
 H        -3.764125        -1.160012        -0.188325
 H        -2.967720        -2.802431        -0.078059
 H        -1.811597        -0.688998         1.727825
 H        -2.352505         1.299233        -0.585259
 H        -1.333139        -1.251548        -2.057748
 H        -0.053523         0.018702        -1.632607
 H         0.886232        -2.840052        -0.953884
 H         0.741742        -2.843380         0.757638
 H        -0.685223        -3.292300        -0.459811
