19
Iteration:  4792charge 0 multiplicity 1
 C        -3.023959        -1.739570         0.294471
 C        -1.857664        -0.856181         0.530477
 C        -1.699662         0.444102        -0.223514
 C        -1.008447        -0.383264        -1.282549
 C        -0.405691        -1.180129        -0.113968
 C         0.238195        -2.440309        -0.085683
 C         0.186069        -0.090157         0.712522
 O         1.105917        -0.044258         1.492448
 O        -0.625430         1.166237         0.460406
 H        -2.853478        -2.517204         1.077747
 H        -3.955009        -1.110112         0.554677
 H        -3.010842        -2.307800        -0.705180
 H        -1.788346        -0.712155         1.709979
 H        -2.510872         1.045551        -0.616969
 H        -1.779716        -0.907836        -1.843433
 H        -0.419883         0.223411        -1.954691
 H        -0.256171        -3.104754        -0.817670
 H         1.279309        -2.333023        -0.423312
 H         0.142294        -2.944159         0.849422
