19
Iteration:   265charge 0 multiplicity 1
 C        -2.971562        -1.404255         1.560549
 C        -1.773068        -0.586047         1.119845
 C        -1.816796         0.435782        -0.070503
 C        -1.532418        -0.555518        -1.203809
 C        -0.538718        -1.229379        -0.093995
 C         0.067823        -2.622261        -0.073705
 C         0.353884        -0.110961         0.161416
 O         1.534203        -0.072685         0.257331
 O        -0.478910         1.036173         0.201230
 H        -3.153142        -2.249167         0.823884
 H        -2.931057        -1.769614         2.565108
 H        -3.906118        -0.796924         1.501814
 H        -1.223277        -0.201380         1.986255
 H        -2.612293         1.193377        -0.269312
 H        -2.398899        -1.203800        -1.412065
 H        -0.990896        -0.205450        -2.065955
 H         1.123054        -2.564495        -0.111462
 H        -0.289276        -3.081153         0.857893
 H        -0.272268        -3.333626        -1.011014
