19
Iteration:  3233charge 0 multiplicity 1
 C        -3.145282        -1.678136        -0.161195
 C        -2.003016        -0.823060         0.521950
 C        -1.687850         0.400616        -0.290820
 C        -0.980631        -0.537490        -1.285318
 C        -0.488909        -1.165336         0.244146
 C         0.244899        -2.517942         0.467040
 C         0.189436         0.091270         0.728363
 O         1.323328        -0.006124         1.181456
 O        -0.571673         1.134584         0.489502
 H        -4.075238        -1.733041         0.419640
 H        -3.499534        -1.252513        -1.119519
 H        -2.649805        -2.549479        -0.649067
 H        -2.334279        -0.567218         1.527255
 H        -2.517929         1.127229        -0.635403
 H        -1.841888        -1.137802        -1.618396
 H        -0.265988        -0.125979        -2.037465
 H         0.219475        -3.240144        -0.316796
 H         1.319198        -2.458316         0.771042
 H        -0.233959        -3.017574         1.287937
