19
Iteration:   239
 C        -2.915701        -1.426670         1.413828
 C        -1.663903        -0.683075         1.064581
 C        -1.759951         0.507845        -0.046708
 C        -1.626701        -0.716810        -1.068948
 C        -0.663674        -1.224464         0.073032
 C        -0.108831        -2.647798        -0.130492
 C         0.397715        -0.022816         0.150672
 O         1.603499         0.013543         0.263028
 O        -0.436178         1.101506         0.161338
 H        -2.968305        -2.431306         0.976030
 H        -3.194036        -1.591022         2.483800
 H        -3.851473        -0.984622         1.024775
 H        -1.129822        -0.413654         2.018937
 H        -2.524489         1.328553        -0.096865
 H        -2.559741        -1.256165        -1.134596
 H        -1.152222        -0.765640        -2.054686
 H         0.910750        -2.548873         0.392588
 H        -0.628044        -3.530600         0.238714
 H         0.216316        -2.742747        -1.110073
