19
Iteration:  3971charge 0 multiplicity 1
 C        -3.171274        -1.798169         0.143629
 C        -1.964118        -0.912415         0.611689
 C        -1.700215         0.429912        -0.136024
 C        -0.880323        -0.394766        -1.282843
 C        -0.504508        -1.222597         0.036626
 C         0.087215        -2.644415        -0.049308
 C         0.281582         0.108215         0.728533
 O         1.360968         0.211495         1.194874
 O        -0.629416         1.121615         0.621580
 H        -3.383759        -2.325986         1.103563
 H        -4.143262        -1.260785        -0.077063
 H        -2.961154        -2.572529        -0.646631
 H        -2.062081        -0.950845         1.709295
 H        -2.483544         1.201509        -0.349964
 H        -1.570295        -1.006117        -1.846664
 H        -0.033894         0.061693        -1.869415
 H         0.964041        -2.538360        -0.655175
 H         0.365331        -3.199695         0.795163
 H        -0.487103        -3.179469        -0.795424
