19
Iteration:   974charge 0 multiplicity 1
 C        -2.987726        -1.723231         0.983482
 C        -1.894990        -0.691125         0.816000
 C        -1.695890         0.460803        -0.269916
 C        -1.158851        -0.567325        -1.260103
 C        -0.606784        -1.144559         0.056990
 C        -0.085353        -2.594952         0.027691
 C         0.308941         0.051322         0.465407
 O         1.459186        -0.026503         0.791307
 O        -0.458373         1.153645         0.244617
 H        -3.195594        -1.728587         2.057585
 H        -3.920412        -1.231903         0.557562
 H        -2.936073        -2.776311         0.659300
 H        -1.652137        -0.109172         1.749129
 H        -2.572020         1.072773        -0.588393
 H        -2.043580        -1.068011        -1.647007
 H        -0.478386        -0.275263        -2.070815
 H         0.971043        -2.790393        -0.258463
 H        -0.324085        -3.096457         0.903598
 H        -0.713001        -3.180968        -0.747783
