19
Iteration:   664
 C        -3.077629        -1.724313         0.950307
 C        -1.838000        -0.669843         1.029539
 C        -1.749046         0.456027        -0.061945
 C        -1.419205        -0.611449        -1.186833
 C        -0.641132        -1.128286         0.155700
 C        -0.127077        -2.507643         0.201449
 C         0.373886         0.025843         0.256742
 O         1.591139        -0.017114         0.486565
 O        -0.311845         1.097744         0.060195
 H        -3.172622        -2.233885         1.960454
 H        -3.987686        -1.234432         0.709621
 H        -2.777521        -2.495149         0.230707
 H        -1.482002        -0.656059         2.072799
 H        -2.468800         1.268783        -0.123237
 H        -2.273438        -1.192142        -1.725357
 H        -0.704752        -0.011134        -1.738990
 H        -0.471631        -2.894677         1.243071
 H        -0.588304        -3.187092        -0.619970
 H         0.902680        -2.398884         0.109475
