19
Iteration:  4053charge 0 multiplicity 1
 C        -3.024356        -1.810243         0.466601
 C        -1.882305        -0.795739         0.557035
 C        -1.696261         0.393586        -0.236632
 C        -1.067945        -0.329378        -1.339042
 C        -0.456434        -1.123355        -0.101078
 C         0.236436        -2.400888        -0.158778
 C         0.208978        -0.012617         0.648688
 O         1.013987        -0.096772         1.543959
 O        -0.486631         1.092009         0.386261
 H        -2.586614        -2.685936         0.920237
 H        -3.976915        -1.439722         0.788078
 H        -3.066511        -2.098270        -0.591879
 H        -1.825414        -0.333038         1.569327
 H        -2.486829         1.125084        -0.336514
 H        -1.762333        -1.011115        -1.895129
 H        -0.392031        -0.023954        -2.064482
 H         1.092189        -2.205613        -0.880188
 H         0.782818        -2.616768         0.847681
 H        -0.355614        -3.355427        -0.227285
