19
Iteration:  1297charge 0 multiplicity 1
 C        -3.115030        -1.680143         0.532778
 C        -1.950300        -0.776446         0.716307
 C        -1.726654         0.469073        -0.298083
 C        -1.095313        -0.562478        -1.322834
 C        -0.572101        -1.171377         0.036289
 C        -0.024384        -2.552183         0.389502
 C         0.324325         0.020479         0.488572
 O         1.462746         0.032746         0.947149
 O        -0.428855         1.122022         0.322448
 H        -3.902722        -1.213049        -0.143442
 H        -2.846623        -2.745077         0.139349
 H        -3.688971        -1.877573         1.483608
 H        -1.690489        -0.512836         1.781459
 H        -2.501320         1.212561        -0.499586
 H        -1.988212        -1.086438        -1.705926
 H        -0.587357        -0.079143        -2.162828
 H        -0.707264        -3.114909         1.038234
 H         0.021350        -3.170184        -0.558527
 H         0.964696        -2.511761         0.834183
