19
Iteration:  1517charge 0 multiplicity 1
 C        -3.169548        -1.519040         0.212935
 C        -1.959218        -0.742266         0.699932
 C        -1.667908         0.357661        -0.292134
 C        -1.000082        -0.654909        -1.266971
 C        -0.573413        -1.249799         0.104167
 C         0.096733        -2.568001         0.346965
 C         0.272604        -0.020473         0.628340
 O         1.336402         0.174277         1.147701
 O        -0.469383         1.070670         0.267697
 H        -3.069028        -2.507692        -0.155425
 H        -3.891721        -1.567254         1.100785
 H        -3.626342        -0.983117        -0.631215
 H        -2.030554        -0.535420         1.790426
 H        -2.515383         1.011408        -0.635934
 H        -1.778176        -1.319470        -1.712832
 H        -0.303509        -0.357845        -2.014778
 H         0.265918        -2.585583         1.460121
 H        -0.373455        -3.508164        -0.032905
 H         1.153985        -2.463760         0.026310
