19
Iteration:  3596
 C        -3.038270        -1.805884         0.258083
 C        -1.933168        -0.760180         0.621155
 C        -1.714139         0.396713        -0.252141
 C        -0.936274        -0.409281        -1.332003
 C        -0.442377        -1.143234         0.007117
 C         0.082391        -2.505807        -0.031487
 C         0.255112         0.048269         0.707855
 O         1.127351         0.006268         1.529194
 O        -0.531753         1.114947         0.329828
 H        -3.783476        -2.059673         1.012564
 H        -3.757216        -1.514635        -0.492179
 H        -2.494529        -2.702660         0.068656
 H        -1.776140        -0.490062         1.668631
 H        -2.489699         1.083447        -0.617610
 H        -1.764495        -1.022209        -1.717946
 H        -0.181598        -0.107151        -2.010246
 H         1.046321        -2.534919        -0.619694
 H         0.561879        -2.870969         0.967191
 H        -0.487235        -3.224854        -0.688877
