19
Iteration:  3014charge 0 multiplicity 1
 C        -3.036423        -1.752410        -0.032364
 C        -2.002245        -0.747748         0.525978
 C        -1.602957         0.484215        -0.415501
 C        -0.870567        -0.592257        -1.274642
 C        -0.475890        -1.162742         0.158865
 C        -0.009821        -2.642618         0.485804
 C         0.267304         0.047975         0.667940
 O         1.253473         0.172227         1.392037
 O        -0.620268         1.127034         0.333697
 H        -2.993439        -1.775140        -1.200224
 H        -2.879110        -2.733492         0.430499
 H        -4.118259        -1.386373         0.219067
 H        -2.108941        -0.436885         1.614334
 H        -2.405256         1.083870        -0.779088
 H        -1.583475        -1.273497        -1.927764
 H         0.040895        -0.341232        -1.879667
 H        -0.349091        -3.305913        -0.261232
 H         1.112812        -2.781348         0.449239
 H        -0.393109        -3.101324         1.382561
