19
Iteration:   715
 C        -3.113384        -1.475337         1.102497
 C        -1.830465        -0.686702         0.920493
 C        -1.703693         0.401658        -0.129517
 C        -1.281216        -0.622061        -1.269791
 C        -0.662762        -1.253930         0.003356
 C        -0.021523        -2.606350         0.137009
 C         0.389640        -0.044075         0.244746
 O         1.552001         0.065684         0.585691
 O        -0.500551         1.063993         0.237954
 H        -3.158925        -1.850032         2.122716
 H        -3.853292        -0.648563         0.894736
 H        -3.367496        -2.250149         0.343642
 H        -1.444624        -0.328604         1.901055
 H        -2.544686         1.160123        -0.162603
 H        -2.074560        -1.311119        -1.627093
 H        -0.564041        -0.359221        -2.118114
 H         0.930440        -2.530095         0.692526
 H        -0.677466        -3.385754         0.611921
 H         0.311002        -2.794879        -0.929497
