19
Iteration:  1840charge 0 multiplicity 1
 C        -3.221988        -1.566588         0.005960
 C        -2.016112        -0.769624         0.539228
 C        -1.604989         0.379563        -0.453034
 C        -0.793007        -0.711966        -1.280259
 C        -0.533307        -1.143743         0.312165
 C         0.099545        -2.476617         0.502409
 C         0.215038         0.008803         0.720517
 O         1.194030         0.109430         1.385868
 O        -0.454782         1.039010         0.141064
 H        -2.782055        -2.443971        -0.534951
 H        -3.913228        -1.945364         0.747739
 H        -3.776101        -1.071369        -0.715942
 H        -2.186816        -0.173607         1.455399
 H        -2.271520         1.179882        -0.807362
 H        -1.469175        -1.526068        -1.723300
 H         0.017225        -0.292182        -1.866816
 H         0.881193        -2.291724         1.238917
 H        -0.810674        -3.063133         1.036668
 H         0.431154        -3.047535        -0.378454
