19
Iteration:  3172
 C        -3.106730        -1.756278         0.080477
 C        -1.960877        -0.803096         0.381709
 C        -1.636630         0.466909        -0.441674
 C        -0.722657        -0.543333        -1.256861
 C        -0.477160        -1.166853         0.173744
 C        -0.004022        -2.661958         0.284625
 C         0.248216         0.057234         0.811682
 O         1.323968         0.186402         1.299833
 O        -0.731946         1.101636         0.511977
 H        -3.698791        -2.053501         0.924871
 H        -3.800991        -1.195911        -0.627055
 H        -2.793936        -2.633801        -0.456092
 H        -2.082486        -0.372026         1.412172
 H        -2.308198         1.217953        -0.888389
 H        -1.429606        -1.091704        -1.802544
 H         0.084692        -0.223233        -1.958864
 H        -0.977407        -3.241854         0.140427
 H         0.752424        -2.940329        -0.436275
 H         0.388091        -2.840775         1.354790
