19
Iteration:   317
 C        -2.898401        -1.476350         1.263853
 C        -1.661194        -0.549966         1.117434
 C        -1.779203         0.480686        -0.048640
 C        -1.669316        -0.688551        -1.078244
 C        -0.635608        -1.242057         0.011027
 C        -0.070331        -2.653570         0.019264
 C         0.432375        -0.039965         0.098079
 O         1.631010        -0.030411         0.337597
 O        -0.506671         1.105457         0.141389
 H        -3.527491        -1.295865         0.367155
 H        -2.544981        -2.485893         1.236085
 H        -3.562899        -1.336567         2.129599
 H        -1.136859        -0.136996         2.004234
 H        -2.638489         1.237392        -0.024636
 H        -2.530470        -1.347021        -1.100754
 H        -1.203158        -0.462386        -1.988737
 H         0.255022        -2.935065        -0.978445
 H         0.754031        -2.721638         0.719652
 H        -0.770924        -3.341535         0.379646
