19
Iteration:  2706
 C        -3.007695        -1.717128        -0.026599
 C        -2.108144        -0.664428         0.383730
 C        -1.637968         0.377243        -0.592575
 C        -0.653653        -0.541017        -1.349219
 C        -0.519284        -1.241675         0.156616
 C        -0.051250        -2.502298         0.786984
 C         0.225550         0.015309         0.745421
 O         1.273830         0.047527         1.350211
 O        -0.659746         1.098675         0.289756
 H        -3.065723        -2.033641        -1.056262
 H        -2.819052        -2.595787         0.535604
 H        -3.976466        -1.473814         0.324383
 H        -2.335708        -0.336728         1.467572
 H        -2.415267         1.064761        -1.025263
 H        -1.176852        -0.982843        -2.147015
 H         0.249130         0.116227        -1.618204
 H        -0.639600        -3.472341         0.607930
 H         1.053040        -2.794562         0.590635
 H         0.013353        -2.204421         1.869436
