19
Iteration:  2986
 C        -3.094166        -1.840320        -0.021059
 C        -2.037807        -0.835955         0.448049
 C        -1.649295         0.424711        -0.465908
 C        -0.761324        -0.424038        -1.313116
 C        -0.563897        -1.146325         0.099320
 C        -0.066300        -2.442315         0.663217
 C         0.214208         0.026820         0.790608
 O         1.319378         0.050342         1.224597
 O        -0.561785         1.087817         0.376086
 H        -3.447191        -1.400250        -0.891157
 H        -2.745728        -2.895058        -0.211522
 H        -3.865429        -1.784105         0.663569
 H        -2.109110        -0.603871         1.501333
 H        -2.461891         1.142612        -0.931829
 H        -1.147024        -1.108790        -1.996812
 H         0.162001         0.108123        -1.589930
 H        -0.234781        -3.414617        -0.001181
 H         1.044081        -2.509646         0.680626
 H        -0.129741        -2.555696         1.796372
