19
Iteration:  4086charge 0 multiplicity 1
 C        -3.092095        -1.791148         0.353336
 C        -1.915205        -0.911119         0.611060
 C        -1.664038         0.413599        -0.297787
 C        -0.901505        -0.351545        -1.296230
 C        -0.401551        -1.123631         0.000148
 C         0.126403        -2.554355        -0.155169
 C         0.215482         0.014516         0.760685
 O         1.224310         0.086322         1.402609
 O        -0.663635         1.111651         0.480727
 H        -2.900853        -2.837455         0.542539
 H        -3.937010        -1.687358         0.992103
 H        -3.422557        -1.673305        -0.691382
 H        -1.883014        -0.358329         1.554174
 H        -2.531005         1.056324        -0.503320
 H        -1.678961        -1.002023        -1.787134
 H        -0.217988        -0.007968        -1.993874
 H         0.733777        -2.593994        -1.107389
 H         0.818798        -2.823390         0.729885
 H        -0.675716        -3.253679        -0.520864
