19
Iteration:   294charge 0 multiplicity 1
 C        -2.982871        -1.478310         1.448038
 C        -1.760576        -0.742503         1.030863
 C        -1.765227         0.448170         0.020520
 C        -1.535959        -0.544143        -1.143634
 C        -0.607766        -1.270643         0.047325
 C        -0.010029        -2.536652        -0.013377
 C         0.309731        -0.074332         0.150390
 O         1.525400        -0.053491         0.297547
 O        -0.378738         1.102931         0.019607
 H        -3.678958        -1.798841         0.656015
 H        -2.567447        -2.259992         2.077002
 H        -3.472931        -0.715752         2.088199
 H        -1.254693        -0.566193         2.010096
 H        -2.659462         1.141045        -0.098014
 H        -2.395343        -1.175801        -1.374622
 H        -0.887379        -0.222013        -1.949570
 H         0.847985        -2.490981        -0.742363
 H         0.367966        -2.768444         0.992849
 H        -0.714045        -3.220892        -0.221999
