19
Iteration:  2533charge 0 multiplicity 1
 C        -3.062654        -1.778075        -0.107668
 C        -2.069961        -0.679914         0.468612
 C        -1.594880         0.370666        -0.535860
 C        -0.723840        -0.713373        -1.261029
 C        -0.523512        -1.151028         0.323910
 C        -0.205340        -2.594802         0.559066
 C         0.322223         0.037269         0.774782
 O         1.342051         0.282417         1.457056
 O        -0.573736         1.106951         0.201077
 H        -2.813559        -2.156179        -1.139379
 H        -3.399233        -2.589081         0.595294
 H        -4.085521        -1.266607        -0.354736
 H        -2.398800        -0.281188         1.462151
 H        -2.319696         1.192260        -0.918434
 H        -1.097093        -1.426938        -1.928567
 H         0.187095        -0.311291        -1.810357
 H        -1.065242        -3.226026         0.396855
 H         0.667492        -2.858581        -0.039232
 H         0.020623        -2.845993         1.597284
