19
Iteration:   461
 C        -2.983652        -1.444654         1.128002
 C        -1.723451        -0.671922         1.006350
 C        -1.780975         0.449003        -0.080222
 C        -1.486674        -0.743356        -1.066459
 C        -0.654110        -1.205091         0.114830
 C        -0.038217        -2.623707         0.067996
 C         0.326613        -0.040662         0.201992
 O         1.537021         0.068315         0.428514
 O        -0.393121         1.115046         0.072125
 H        -2.906216        -2.201316         1.957360
 H        -3.733366        -0.720644         1.510603
 H        -3.385013        -1.926439         0.225173
 H        -1.322997        -0.498780         2.041157
 H        -2.462551         1.278744        -0.146215
 H        -2.237212        -1.578127        -1.280409
 H        -0.936191        -0.634822        -2.013418
 H         0.582537        -2.769523         0.924857
 H        -0.772519        -3.393863         0.178400
 H         0.657320        -2.782025        -0.874875
