19
Iteration:  4659
 C        -3.068187        -1.762521        -0.047300
 C        -1.964605        -0.876834         0.519338
 C        -1.746843         0.453528        -0.185140
 C        -0.962838        -0.388039        -1.266794
 C        -0.570331        -1.168288         0.064793
 C         0.206233        -2.463611         0.176128
 C         0.248392        -0.062730         0.785289
 O         1.403828         0.089058         1.060165
 O        -0.679572         1.058867         0.728141
 H        -3.249017        -2.668117         0.615022
 H        -4.112622        -1.202089        -0.050177
 H        -3.018400        -2.107788        -1.115616
 H        -2.256762        -0.751768         1.691990
 H        -2.560761         1.188195        -0.248360
 H        -1.350912        -1.204316        -1.865256
 H        -0.231837         0.305356        -1.628348
 H        -0.483611        -3.199567        -0.272614
 H         1.103313        -2.453381        -0.412774
 H         0.558579        -2.712553         1.171964
