19
Iteration:  3051
 C        -3.250200        -1.684313         0.255868
 C        -2.023475        -0.786700         0.472910
 C        -1.530886         0.405624        -0.492454
 C        -0.663234        -0.620901        -1.259851
 C        -0.493337        -1.189460         0.149960
 C         0.104705        -2.561451         0.230681
 C         0.214344         0.005114         0.726294
 O         1.130638         0.188269         1.518282
 O        -0.586181         1.084163         0.229997
 H        -3.082431        -2.501912        -0.335976
 H        -3.741319        -2.134047         1.127572
 H        -3.970335        -1.063959        -0.191363
 H        -2.131956        -0.501105         1.555939
 H        -2.282870         1.232555        -0.863240
 H        -1.175106        -1.294869        -1.899245
 H         0.144125        -0.075629        -1.768053
 H        -0.417896        -3.008517        -0.689202
 H         1.146299        -2.438460        -0.090880
 H         0.188477        -3.047036         1.233637
