19
Iteration:  1049charge 0 multiplicity 1
 C        -3.195519        -1.499446         0.659819
 C        -1.903271        -0.730842         0.883333
 C        -1.732030         0.390748        -0.141177
 C        -1.315338        -0.677135        -1.101605
 C        -0.549908        -1.175018         0.123955
 C         0.138303        -2.449643         0.103545
 C         0.349442        -0.025210         0.418709
 O         1.499405        -0.043471         0.760911
 O        -0.444369         1.083896         0.197076
 H        -3.150884        -2.440160         1.153217
 H        -4.110862        -1.090233         1.139802
 H        -3.369681        -1.678108        -0.368060
 H        -1.835832        -0.303310         1.896448
 H        -2.544920         1.123086        -0.406454
 H        -2.048323        -1.211434        -1.685936
 H        -0.550302        -0.271517        -1.797115
 H        -0.322401        -3.094702        -0.655657
 H         1.163369        -2.354981        -0.015971
 H         0.089560        -2.993115         1.077877
