19
Iteration:  4431charge 0 multiplicity 1
 C        -3.017794        -1.840198        -0.044512
 C        -1.957407        -0.829273         0.567490
 C        -1.721223         0.477345        -0.179869
 C        -0.929953        -0.278647        -1.236458
 C        -0.561269        -1.126873         0.024172
 C         0.188304        -2.461140         0.175112
 C         0.179832        -0.061637         0.758032
 O         1.378888        -0.013940         1.113346
 O        -0.710938         1.070290         0.687257
 H        -3.165225        -2.549337         0.823288
 H        -4.054808        -1.536622        -0.399632
 H        -2.607978        -2.383355        -0.862315
 H        -2.029755        -0.839954         1.635682
 H        -2.532521         1.212075        -0.272745
 H        -1.693632        -0.869312        -1.806522
 H        -0.349514         0.264724        -2.045675
 H        -0.580393        -3.374765         0.141232
 H         0.872954        -2.542568        -0.737866
 H         0.971852        -2.497781         1.004821
