19
Iteration:  3241
 C        -3.091762        -1.668665        -0.137063
 C        -2.040897        -0.809617         0.529070
 C        -1.715367         0.486069        -0.307941
 C        -1.012202        -0.545070        -1.286045
 C        -0.448778        -1.175037         0.166403
 C         0.222213        -2.523690         0.460203
 C         0.244192         0.018678         0.726566
 O         1.328718        -0.021786         1.248260
 O        -0.620577         1.189017         0.456606
 H        -4.065903        -1.915150         0.406422
 H        -3.436903        -1.151005        -0.991247
 H        -2.708231        -2.697196        -0.412490
 H        -2.187256        -0.691370         1.601980
 H        -2.554983         1.166054        -0.422244
 H        -1.567093        -1.405387        -1.815199
 H        -0.264660        -0.514452        -2.036765
 H         0.258417        -3.037035        -0.572404
 H         1.348085        -2.377393         0.888731
 H        -0.353292        -3.099224         1.313777
