19
Iteration:   427charge 0 multiplicity 1
 C        -3.120260        -1.476124         1.177875
 C        -1.803324        -0.641684         1.085403
 C        -1.833506         0.469006        -0.000995
 C        -1.502417        -0.591309        -1.080156
 C        -0.563638        -1.204628         0.058554
 C         0.115315        -2.629273         0.100857
 C         0.409984        -0.065787         0.097216
 O         1.596302         0.007220         0.383110
 O        -0.456348         1.052240         0.036650
 H        -3.368595        -1.675677         2.281300
 H        -3.931084        -0.909811         0.767459
 H        -3.143414        -2.463300         0.665604
 H        -1.491490        -0.393394         2.132747
 H        -2.601206         1.276850        -0.088127
 H        -2.169932        -1.484733        -1.280598
 H        -0.974122        -0.255263        -1.946206
 H        -0.209578        -3.018289         1.079942
 H        -0.317184        -3.270245        -0.650236
 H         1.245179        -2.741486         0.054942
