19
Iteration:  2636charge 0 multiplicity 1
 C        -3.168952        -1.489947         0.182125
 C        -2.021665        -0.638386         0.491897
 C        -1.660351         0.259600        -0.628721
 C        -0.729889        -0.701820        -1.286885
 C        -0.460588        -1.216482         0.148505
 C         0.194910        -2.602850         0.345684
 C         0.164410         0.006692         0.794749
 O         0.945606         0.246493         1.648626
 O        -0.413957         0.998582         0.121627
 H        -3.304732        -1.689949        -0.892477
 H        -3.144554        -2.483106         0.700206
 H        -4.049057        -0.962962         0.600283
 H        -2.130040        -0.055542         1.382321
 H        -2.140005         1.008500        -1.275051
 H        -1.193038        -1.594280        -1.870892
 H         0.154972        -0.282280        -1.688808
 H        -0.177627        -3.333116        -0.357103
 H         1.244472        -2.619788         0.205378
 H         0.097046        -2.968846         1.356153
