19
Iteration:  3902
 C        -3.107964        -1.843667        -0.017014
 C        -2.037216        -0.965803         0.532938
 C        -1.729281         0.469101        -0.094124
 C        -1.030589        -0.239773        -1.225195
 C        -0.529372        -1.143221         0.044669
 C         0.162052        -2.452397         0.237408
 C         0.219620        -0.012603         0.747695
 O         1.388615        -0.014230         0.990249
 O        -0.569646         1.082481         0.640310
 H        -2.437684        -2.734307         0.021546
 H        -3.911001        -1.989301         0.674598
 H        -3.310442        -1.531084        -1.040480
 H        -2.104522        -0.838996         1.591934
 H        -2.427347         1.266348        -0.295746
 H        -1.759561        -0.797651        -1.977236
 H        -0.215194         0.315715        -1.684071
 H         1.100291        -2.329041        -0.095320
 H         0.360069        -2.520499         1.290875
 H        -0.081517        -3.337390        -0.241934
