19
Iteration:  3782charge 0 multiplicity 1
 C        -3.042318        -1.747904         0.333173
 C        -1.964988        -0.755702         0.595600
 C        -1.664466         0.459622        -0.280637
 C        -0.982293        -0.457679        -1.347623
 C        -0.420760        -1.129348        -0.116119
 C         0.244878        -2.440486        -0.082439
 C         0.180304        -0.028655         0.694753
 O         1.083860        -0.073110         1.452230
 O        -0.580026         1.097407         0.522249
 H        -2.973413        -2.295385        -0.666318
 H        -2.664453        -2.537079         1.034266
 H        -3.993739        -1.298415         0.732885
 H        -1.924574        -0.482590         1.645359
 H        -2.447707         1.176064        -0.487147
 H        -1.744164        -1.051189        -2.005844
 H        -0.221700        -0.129023        -2.084765
 H         0.995172        -2.463627        -0.876028
 H         0.819813        -2.470048         0.869275
 H        -0.433348        -3.298325        -0.256725
