19
Iteration:  1247charge 0 multiplicity 1
 C        -3.145231        -1.608203         0.616461
 C        -1.879518        -0.719402         0.828500
 C        -1.668194         0.468962        -0.267181
 C        -1.135563        -0.637987        -1.225957
 C        -0.576163        -1.211515         0.134879
 C         0.018503        -2.582635         0.129958
 C         0.280112         0.004214         0.487800
 O         1.366144         0.074291         0.967571
 O        -0.412211         1.103937         0.189212
 H        -3.498412        -1.650865        -0.375699
 H        -3.047872        -2.611826         0.967217
 H        -3.898827        -1.261824         1.309031
 H        -1.811112        -0.228998         1.788007
 H        -2.490558         1.147771        -0.420392
 H        -1.796068        -1.310476        -1.876464
 H        -0.286468        -0.247560        -1.801935
 H        -0.278512        -3.277895        -0.714478
 H         1.067136        -2.423622         0.137585
 H        -0.253364        -3.206423         1.054827
