19
Iteration:  2470
 C        -3.297105        -1.635318        -0.094846
 C        -2.092938        -0.691608         0.370762
 C        -1.552506         0.332166        -0.506943
 C        -0.645711        -0.663760        -1.255366
 C        -0.556906        -1.164100         0.208554
 C         0.097993        -2.376109         0.685010
 C         0.197293        -0.013123         0.797414
 O         1.249595         0.065714         1.309033
 O        -0.544111         1.008796         0.310852
 H        -3.278010        -1.745936        -1.191062
 H        -3.271875        -2.579142         0.417095
 H        -4.277604        -1.186613         0.233394
 H        -2.401822        -0.234381         1.297517
 H        -2.191561         0.984102        -1.162545
 H        -1.146939        -1.342279        -1.946485
 H         0.310789        -0.261465        -1.777341
 H        -0.012483        -3.263023         0.119986
 H         1.189243        -2.168205         0.993540
 H        -0.322671        -2.518722         1.689167
