19
Iteration:   573
 C        -3.146317        -1.499132         1.080087
 C        -1.787016        -0.656305         1.095612
 C        -1.792430         0.427643        -0.083048
 C        -1.448063        -0.671039        -1.099045
 C        -0.613330        -1.243992         0.095750
 C         0.072775        -2.675731         0.087030
 C         0.333243        -0.021034         0.236418
 O         1.522710         0.093478         0.564228
 O        -0.343979         1.117920        -0.038603
 H        -2.978951        -2.557190         1.050053
 H        -4.004123        -1.173951         1.788895
 H        -3.518422        -1.246442         0.067010
 H        -1.149041        -0.305043         1.933990
 H        -2.550244         1.242018        -0.191767
 H        -2.326297        -1.292907        -1.272642
 H        -0.702837        -0.368126        -1.969635
 H        -0.296846        -3.242486        -0.751025
 H         1.184104        -2.787694        -0.042285
 H        -0.241775        -3.234555         1.033039
