19
Iteration:  1435charge 0 multiplicity 1
 C        -3.072873        -1.707101         0.575268
 C        -2.059031        -0.573666         0.599864
 C        -1.701395         0.534100        -0.499192
 C        -1.035176        -0.596890        -1.304670
 C        -0.501175        -1.157264         0.057369
 C         0.058728        -2.565811         0.308455
 C         0.243166        -0.025642         0.609792
 O         1.317052        -0.032004         1.192538
 O        -0.463716         1.069744         0.230698
 H        -2.667547        -2.394538         1.413014
 H        -4.069564        -1.425297         0.787026
 H        -3.066135        -2.246832        -0.401524
 H        -2.083728        -0.254497         1.664861
 H        -2.332003         1.326532        -0.947748
 H        -1.656078        -1.177478        -1.965269
 H        -0.068596        -0.251660        -1.882940
 H        -0.207342        -3.380652        -0.377976
 H         1.226650        -2.525776         0.438663
 H        -0.229261        -2.826679         1.370991
