19
Iteration:   374charge 0 multiplicity 1
 C        -3.021658        -1.571215         1.285527
 C        -1.828869        -0.618856         1.007750
 C        -1.803904         0.419963        -0.049691
 C        -1.434757        -0.564338        -1.100056
 C        -0.635268        -1.219678         0.073398
 C        -0.063618        -2.636876         0.141110
 C         0.382704         0.027927         0.118185
 O         1.592508        -0.020539         0.239435
 O        -0.392365         1.091992         0.139969
 H        -3.859870        -1.068023         1.820622
 H        -3.449159        -2.062079         0.420160
 H        -2.583748        -2.360018         1.920307
 H        -1.448797        -0.214821         1.961708
 H        -2.551032         1.209180        -0.093445
 H        -2.076698        -1.247074        -1.614064
 H        -0.883531        -0.189689        -1.919999
 H        -0.782133        -3.387591         0.000508
 H         0.756455        -2.774573        -0.513576
 H         0.242956        -2.753700         1.228715
