19
Iteration:  4999
 C        -3.032665        -1.701905         0.391110
 C        -1.820612        -0.845252         0.646488
 C        -1.712543         0.409587        -0.331303
 C        -0.866095        -0.386024        -1.293419
 C        -0.380472        -1.117800        -0.092521
 C         0.167028        -2.518660        -0.286000
 C         0.165246        -0.064959         0.778822
 O         1.047918         0.060219         1.612224
 O        -0.646454         1.054480         0.393682
 H        -3.099531        -2.604388         0.982005
 H        -4.035309        -1.394382         0.721610
 H        -3.013286        -2.045207        -0.667285
 H        -1.582972        -0.609410         1.641771
 H        -2.494152         1.201771        -0.501230
 H        -1.408639        -0.997447        -2.060414
 H        -0.231349         0.282801        -1.943502
 H        -0.437803        -3.201906        -0.957775
 H         1.236118        -2.324176        -0.721137
 H         0.083635        -3.104420         0.715835
