19
Iteration:  2598
 C        -3.260171        -1.563986         0.230783
 C        -1.980177        -0.772117         0.402476
 C        -1.534798         0.388831        -0.724323
 C        -0.760449        -0.689634        -1.358250
 C        -0.379708        -1.200672         0.054905
 C         0.244617        -2.500679         0.542558
 C         0.153424         0.035695         0.749541
 O         0.951469         0.009695         1.610546
 O        -0.491214         1.128162         0.225309
 H        -3.320017        -2.397199        -0.538504
 H        -3.501839        -2.009736         1.220202
 H        -4.072155        -0.789064        -0.028673
 H        -2.071398        -0.167852         1.365771
 H        -2.240663         1.133743        -1.197349
 H        -1.376568        -1.361341        -1.881942
 H         0.042405        -0.248984        -2.068445
 H        -0.419781        -3.372323         0.248946
 H         1.285891        -2.611616         0.121048
 H         0.200304        -2.415893         1.661036
