19
Iteration:  1796charge 0 multiplicity 1
 C        -3.255076        -1.573647         0.073097
 C        -2.022196        -0.742633         0.440595
 C        -1.597301         0.403853        -0.511015
 C        -0.716144        -0.615324        -1.353964
 C        -0.469833        -1.182568         0.169864
 C         0.033484        -2.491873         0.735030
 C         0.191288         0.006260         0.692975
 O         1.302724         0.066930         1.173276
 O        -0.579150         1.039336         0.388488
 H        -3.153869        -2.659751         0.317576
 H        -4.085775        -1.195771         0.631380
 H        -3.598188        -1.531775        -0.923478
 H        -2.072385        -0.533562         1.519458
 H        -2.302327         1.065458        -0.953056
 H        -1.319672        -1.442182        -1.863249
 H         0.121467        -0.278330        -1.938123
 H        -0.157936        -2.593327         1.793178
 H        -0.388279        -3.290896         0.036634
 H         1.098852        -2.549298         0.475087
