19
Iteration:  1523
 C        -3.214079        -1.521967         0.221778
 C        -1.961765        -0.771298         0.692863
 C        -1.651250         0.421754        -0.316849
 C        -0.972036        -0.670629        -1.227736
 C        -0.547552        -1.247542         0.116592
 C         0.125313        -2.533547         0.376447
 C         0.249272         0.034189         0.618453
 O         1.347073         0.090590         1.130556
 O        -0.492499         1.106750         0.264223
 H        -2.946217        -2.604346        -0.091737
 H        -3.866446        -1.795018         1.022292
 H        -3.739772        -1.155159        -0.673416
 H        -2.136278        -0.552960         1.758360
 H        -2.512374         0.998813        -0.549739
 H        -1.768848        -1.254725        -1.732778
 H        -0.188860        -0.471463        -2.022445
 H         0.370090        -2.607347         1.422272
 H        -0.576686        -3.356693         0.036637
 H         1.052278        -2.546694        -0.223288
