19
Iteration:  1535charge 0 multiplicity 1
 C        -3.255071        -1.670634         0.230379
 C        -2.010365        -0.748714         0.618284
 C        -1.646555         0.459676        -0.349620
 C        -0.953710        -0.660850        -1.208535
 C        -0.520665        -1.131800         0.222142
 C         0.162121        -2.504622         0.390764
 C         0.275738         0.047222         0.603401
 O         1.354505        -0.059697         1.097540
 O        -0.553592         1.192592         0.271162
 H        -2.815164        -2.638251        -0.129815
 H        -3.933784        -1.752262         1.089064
 H        -3.852119        -1.210429        -0.559164
 H        -1.933880        -0.425223         1.683898
 H        -2.216483         1.263254        -0.727022
 H        -1.667276        -1.380094        -1.755242
 H        -0.100014        -0.309550        -1.820660
 H         0.705510        -2.716703         1.319981
 H        -0.728888        -3.266077         0.384094
 H         0.799638        -2.832457        -0.426131
