19
Iteration:  3925
 C        -3.048254        -1.786934        -0.065950
 C        -1.987049        -0.862949         0.610630
 C        -1.734479         0.468717        -0.086357
 C        -0.965170        -0.403109        -1.274313
 C        -0.528477        -1.193181         0.154985
 C         0.146188        -2.524294         0.178388
 C         0.247206        -0.004859         0.650487
 O         1.462280         0.102915         0.936543
 O        -0.737901         1.073272         0.772521
 H        -2.953859        -2.872888         0.199019
 H        -4.004693        -1.423624         0.288291
 H        -2.934985        -1.573356        -1.154236
 H        -2.140067        -0.775293         1.679562
 H        -2.590963         1.153236        -0.162318
 H        -1.546638        -0.837262        -2.138050
 H        -0.088239         0.207552        -1.583418
 H         1.012328        -2.671024        -0.295480
 H         0.284801        -2.818601         1.198357
 H        -0.500361        -3.189218        -0.336524
