19
Iteration:  1835
 C        -3.223226        -1.555484         0.001763
 C        -2.008625        -0.747880         0.520177
 C        -1.620851         0.374098        -0.494595
 C        -0.795646        -0.707980        -1.295947
 C        -0.558691        -1.185794         0.239068
 C         0.116599        -2.474915         0.587506
 C         0.185970        -0.016667         0.726064
 O         1.210195         0.109266         1.345602
 O        -0.463212         1.057790         0.211203
 H        -2.864252        -2.495121        -0.398005
 H        -3.862240        -1.810741         0.871687
 H        -3.771743        -1.005368        -0.850030
 H        -2.126849        -0.394458         1.569869
 H        -2.210143         1.244891        -0.801317
 H        -1.469890        -1.351310        -1.808341
 H        -0.001545        -0.290194        -1.946970
 H         0.908558        -2.385431         1.367482
 H        -0.617067        -3.099735         0.998148
 H         0.603991        -2.972610        -0.274696
