19
Iteration:   378
 C        -3.012643        -1.557985         1.299115
 C        -1.805834        -0.574721         0.966006
 C        -1.828644         0.421391        -0.051001
 C        -1.429431        -0.587680        -1.094150
 C        -0.613283        -1.199057         0.068478
 C        -0.054671        -2.631815         0.138140
 C         0.389708         0.011968         0.119976
 O         1.567450        -0.031760         0.235628
 O        -0.413142         1.074585         0.179717
 H        -3.803913        -1.108623         1.860677
 H        -3.519296        -1.976674         0.359701
 H        -2.632352        -2.462331         1.793036
 H        -1.447452        -0.173793         1.917292
 H        -2.479746         1.274150        -0.118960
 H        -2.154291        -1.289469        -1.573323
 H        -0.810890        -0.211962        -2.005693
 H        -0.818642        -3.487405         0.180219
 H         0.798102        -2.776096        -0.597699
 H         0.357849        -2.720064         1.178614
