19
Iteration:  3363
 C        -3.093793        -1.748236         0.189594
 C        -1.908384        -0.843119         0.634606
 C        -1.602806         0.499599        -0.295489
 C        -1.052247        -0.535593        -1.344730
 C        -0.516110        -1.141655        -0.005795
 C         0.241722        -2.412822         0.218427
 C         0.223367        -0.008295         0.672478
 O         1.099157        -0.056118         1.506240
 O        -0.488538         1.137338         0.234901
 H        -3.947916        -1.213014        -0.200640
 H        -2.759703        -2.491502        -0.531540
 H        -3.605433        -2.176778         1.068371
 H        -2.052205        -0.522805         1.640754
 H        -2.344267         1.340413        -0.474861
 H        -1.759609        -1.122619        -2.005234
 H        -0.257165        -0.207427        -2.042594
 H         1.373316        -2.366548         0.172917
 H        -0.080232        -2.782021         1.320293
 H        -0.151561        -3.138820        -0.584368
