19
Iteration:  1981charge 0 multiplicity 1
 C        -3.258302        -1.557607        -0.115239
 C        -1.978695        -0.763410         0.525306
 C        -1.631834         0.385329        -0.482227
 C        -0.715544        -0.786810        -1.195365
 C        -0.456017        -1.243364         0.254475
 C         0.043513        -2.675710         0.483090
 C         0.211532         0.113445         0.759208
 O         1.172794         0.254783         1.518279
 O        -0.483102         1.131338         0.131918
 H        -3.139210        -1.704011        -1.203588
 H        -3.657720        -2.461527         0.338803
 H        -3.944243        -0.763911         0.035457
 H        -2.282453        -0.530622         1.556062
 H        -2.347577         1.014235        -1.102745
 H        -1.403599        -1.498999        -1.673721
 H         0.138111        -0.546198        -1.854335
 H         0.106891        -3.189958        -0.449980
 H         1.078350        -2.612979         0.990110
 H        -0.469787        -3.199240         1.262179
