19
Iteration:  3864charge 0 multiplicity 1
 C        -3.052204        -1.766939         0.219849
 C        -1.938965        -0.863492         0.550708
 C        -1.678461         0.427237        -0.179557
 C        -1.008352        -0.396965        -1.277021
 C        -0.461442        -1.162670        -0.050130
 C         0.186873        -2.484313        -0.034584
 C         0.193712         0.026942         0.733188
 O         1.269461         0.010268         1.287209
 O        -0.626929         1.110132         0.574715
 H        -2.598867        -2.623876        -0.266735
 H        -3.764274        -2.142394         0.985179
 H        -3.726495        -1.424290        -0.586115
 H        -1.921573        -0.776492         1.683727
 H        -2.482247         1.164994        -0.383387
 H        -1.717228        -0.925847        -1.883027
 H        -0.312116         0.264178        -1.863222
 H         1.365251        -2.359494        -0.286711
 H         0.085802        -2.904079         1.006180
 H        -0.416773        -3.217303        -0.689321
