19
Iteration:  3357
 C        -3.116749        -1.764798         0.228106
 C        -1.912463        -0.812398         0.627572
 C        -1.616413         0.475238        -0.339510
 C        -1.048675        -0.533035        -1.357588
 C        -0.488074        -1.125149         0.043779
 C         0.250074        -2.468832         0.185196
 C         0.232116        -0.010801         0.645972
 O         1.037364        -0.037821         1.513200
 O        -0.446433         1.187307         0.255391
 H        -4.025215        -1.215691        -0.145002
 H        -2.834987        -2.419476        -0.649216
 H        -3.523049        -2.324806         1.074436
 H        -1.991434        -0.593781         1.740228
 H        -2.300741         1.287398        -0.359701
 H        -1.583816        -1.159841        -2.046625
 H        -0.248872        -0.187014        -2.025743
 H         1.304471        -2.483993         0.045378
 H         0.046201        -2.850503         1.099268
 H        -0.210932        -3.225336        -0.381867
