19
Iteration:   611
 C        -3.096631        -1.435524         1.139493
 C        -1.795945        -0.696950         0.931881
 C        -1.785914         0.403432        -0.203588
 C        -1.297850        -0.692352        -1.228108
 C        -0.576904        -1.208550         0.019642
 C        -0.006283        -2.528704         0.135468
 C         0.322420        -0.060741         0.313695
 O         1.537951         0.041615         0.441596
 O        -0.444247         1.044468         0.288230
 H        -3.151858        -2.365768         1.770999
 H        -3.841508        -0.776880         1.532658
 H        -3.307453        -1.741512         0.107869
 H        -1.527547        -0.319524         1.929106
 H        -2.598425         1.109660        -0.290214
 H        -2.250387        -1.255225        -1.446196
 H        -0.744477        -0.565982        -2.121049
 H        -0.879840        -3.267588         0.211136
 H         0.709186        -2.688656        -0.700560
 H         0.641238        -2.538073         1.036847
