19
Iteration:  4903
 C        -3.176461        -1.791471        -0.073906
 C        -2.000955        -0.955445         0.577044
 C        -1.679703         0.405508        -0.151987
 C        -0.920627        -0.271139        -1.248629
 C        -0.497030        -1.173732         0.125793
 C         0.078274        -2.599566         0.206468
 C         0.250753         0.069245         0.740665
 O         1.423452         0.224031         1.091233
 O        -0.614610         1.004499         0.645337
 H        -3.145274        -2.881752         0.295191
 H        -4.290972        -1.719020         0.083095
 H        -3.029921        -1.931124        -1.233920
 H        -1.986474        -0.914015         1.747555
 H        -2.374367         1.210098        -0.433636
 H        -1.633698        -0.653729        -1.979114
 H        -0.141229         0.237807        -1.830542
 H        -0.702638        -3.242524        -0.144467
 H         0.892930        -2.718731        -0.525018
 H         0.510456        -2.899296         1.189147
