19
Iteration:  2372
 C        -3.104985        -1.688695         0.335977
 C        -1.991039        -0.657572         0.372662
 C        -1.503069         0.387940        -0.812553
 C        -0.532721        -0.679031        -1.278614
 C        -0.529867        -1.201448         0.146232
 C        -0.082827        -2.619348         0.386524
 C         0.164717         0.072384         0.753933
 O         0.989979         0.133736         1.663314
 O        -0.530874         1.123977         0.199400
 H        -3.124482        -2.302016        -0.534728
 H        -3.051902        -2.231372         1.219838
 H        -4.064948        -1.166720         0.378120
 H        -2.251142        -0.001664         1.210676
 H        -2.043383         1.308207        -1.261046
 H        -0.881221        -1.365968        -2.012606
 H         0.483653        -0.445911        -1.789846
 H        -0.884100        -3.269888         0.052696
 H         0.913256        -2.759617        -0.277765
 H         0.193796        -2.916323         1.413294
