19
Iteration:  2368
 C        -3.092528        -1.666010         0.319058
 C        -2.007251        -0.650132         0.376796
 C        -1.486552         0.356521        -0.806832
 C        -0.537392        -0.697483        -1.298326
 C        -0.557997        -1.173805         0.152145
 C        -0.071317        -2.565028         0.387270
 C         0.171619         0.053707         0.759913
 O         0.996591         0.117598         1.667327
 O        -0.522935         1.126341         0.207106
 H        -3.119699        -2.363197        -0.565381
 H        -2.958388        -2.368184         1.253556
 H        -4.054136        -1.077612         0.331212
 H        -2.260050        -0.114727         1.306859
 H        -2.087741         1.083394        -1.358595
 H        -0.948747        -1.410429        -2.061387
 H         0.403134        -0.313549        -1.754077
 H        -0.847792        -3.338398         0.113334
 H         0.735535        -2.682942        -0.287464
 H         0.215833        -2.865840         1.403019
