19
Iteration:  3756
 C        -3.069640        -1.793617         0.209502
 C        -1.921624        -0.862236         0.575209
 C        -1.731454         0.488524        -0.321095
 C        -1.071079        -0.290988        -1.329937
 C        -0.499127        -1.133228        -0.006991
 C         0.236567        -2.448389         0.148176
 C         0.251401        -0.026066         0.666787
 O         1.258737        -0.123282         1.375743
 O        -0.621007         1.106670         0.480526
 H        -3.370965        -1.739908        -0.808479
 H        -2.544708        -2.766530         0.277235
 H        -3.786530        -1.706097         0.994694
 H        -1.928727        -0.617550         1.657264
 H        -2.523119         1.225631        -0.570350
 H        -1.731276        -0.776833        -2.032966
 H        -0.276911         0.097079        -2.056764
 H         0.939766        -2.636622        -0.629957
 H         0.746211        -2.378286         1.073861
 H        -0.386504        -3.308106         0.149667
