19
Iteration:   636charge 0 multiplicity 1
 C        -3.006265        -1.554653         1.044330
 C        -1.852161        -0.592049         0.836914
 C        -1.749386         0.533140        -0.169324
 C        -1.368435        -0.587764        -1.188585
 C        -0.589107        -1.223541         0.100089
 C         0.018274        -2.659468         0.219286
 C         0.370070        -0.041823         0.263660
 O         1.546070        -0.077094         0.418863
 O        -0.537621         1.126100         0.292815
 H        -2.866068        -2.028510         2.012770
 H        -4.024694        -1.095666         1.143623
 H        -2.927128        -2.365667         0.306824
 H        -1.542795        -0.394753         1.886899
 H        -2.586145         1.229585        -0.240287
 H        -2.258230        -1.079252        -1.540061
 H        -0.695098        -0.297023        -1.986354
 H        -0.655723        -3.202785         0.824771
 H         0.141253        -3.087291        -0.734500
 H         1.100756        -2.610594         0.670137
