19
Iteration:   291
 C        -3.005067        -1.466435         1.470689
 C        -1.759805        -0.754205         1.024852
 C        -1.773166         0.436455         0.020106
 C        -1.522048        -0.535770        -1.150944
 C        -0.646834        -1.250011         0.051968
 C         0.013731        -2.541297        -0.012343
 C         0.329405        -0.081814         0.126252
 O         1.541592        -0.062743         0.301200
 O        -0.394149         1.118246         0.016512
 H        -3.689186        -1.891779         0.737910
 H        -2.549358        -2.219107         2.235110
 H        -3.576231        -0.740326         2.086003
 H        -1.258388        -0.562202         1.985007
 H        -2.613642         1.089210        -0.020387
 H        -2.387467        -1.157116        -1.470159
 H        -0.763668        -0.114718        -1.939598
 H         0.932331        -2.491507        -0.728378
 H         0.309501        -2.823798         1.042099
 H        -0.698488        -3.326316        -0.385136
