19
Iteration:  3425
 C        -3.155767        -1.744118         0.104039
 C        -2.008095        -0.861626         0.497945
 C        -1.715175         0.401938        -0.317483
 C        -0.768326        -0.479671        -1.200884
 C        -0.526525        -1.190845         0.193074
 C         0.003899        -2.576351         0.235985
 C         0.222593         0.037823         0.799099
 O         1.391281         0.237045         1.043845
 O        -0.583162         1.060948         0.559667
 H        -3.330035        -1.932722        -1.024077
 H        -3.180571        -2.765406         0.501370
 H        -4.096798        -1.204573         0.516048
 H        -2.285449        -0.563505         1.577539
 H        -2.417973         1.157660        -0.691935
 H        -0.966797        -1.125265        -2.187912
 H         0.095977         0.004082        -1.665146
 H         1.052832        -2.605698         0.450699
 H        -0.536856        -3.233196         0.822866
 H        -0.204419        -3.199345        -0.643560
