19
Iteration:  1789
 C        -3.221826        -1.609240         0.080993
 C        -2.010643        -0.786241         0.440519
 C        -1.579077         0.351414        -0.461170
 C        -0.750430        -0.625589        -1.281723
 C        -0.539156        -1.184801         0.176324
 C        -0.020883        -2.467178         0.619343
 C         0.205087         0.017415         0.757726
 O         1.331836         0.091894         1.163208
 O        -0.548473         1.051315         0.326823
 H        -3.264460        -2.670083         0.477075
 H        -4.087678        -1.041253         0.615929
 H        -3.342143        -1.603681        -1.068535
 H        -2.198340        -0.240320         1.404194
 H        -2.266943         1.090909        -1.027359
 H        -1.188478        -1.395356        -1.906436
 H         0.217708        -0.172266        -1.704010
 H        -0.397495        -2.634041         1.651335
 H        -0.384020        -3.305603         0.078328
 H         1.071652        -2.333784         0.695534
