19
Iteration:  1285
 C        -3.106813        -1.706470         0.491829
 C        -1.881002        -0.666230         0.717758
 C        -1.785087         0.399117        -0.259617
 C        -1.245762        -0.532840        -1.281835
 C        -0.532143        -1.160594         0.120174
 C        -0.070307        -2.593987         0.321852
 C         0.400442         0.015624         0.452234
 O         1.470229         0.032355         0.992565
 O        -0.416244         1.150117         0.270496
 H        -3.803983        -1.490336        -0.417928
 H        -2.585419        -2.694404         0.197900
 H        -3.683016        -1.829984         1.462668
 H        -1.976097        -0.370255         1.841793
 H        -2.430324         1.272486        -0.436227
 H        -1.807350        -1.362955        -1.663779
 H        -0.430568        -0.305134        -2.026104
 H        -0.900505        -3.183700         0.676922
 H         0.408053        -3.095686        -0.634098
 H         0.692797        -2.569884         1.072432
