19
Iteration:  4177charge 0 multiplicity 1
 C        -3.093348        -1.870901         0.026746
 C        -2.010908        -0.892879         0.561346
 C        -1.803923         0.491240        -0.128937
 C        -0.975191        -0.255867        -1.186694
 C        -0.498825        -1.161836         0.063413
 C         0.201414        -2.489167         0.219062
 C         0.215751        -0.002020         0.699368
 O         1.391751         0.055327         0.903603
 O        -0.601599         1.011436         0.710482
 H        -3.380665        -2.455360         0.886263
 H        -3.971202        -1.380404        -0.261045
 H        -2.694717        -2.405841        -0.804901
 H        -2.303334        -0.859956         1.586562
 H        -2.554282         1.310201        -0.132302
 H        -1.483505        -0.708932        -2.046114
 H        -0.199024         0.304668        -1.775916
 H         1.285295        -2.301835         0.188992
 H        -0.161184        -2.890093         1.196339
 H         0.087852        -3.167646        -0.664987
