19
Iteration:  3327
 C        -3.046907        -1.692321         0.355261
 C        -1.932288        -0.720729         0.534298
 C        -1.598351         0.429674        -0.459682
 C        -0.875640        -0.518929        -1.377304
 C        -0.460699        -1.181148         0.041558
 C         0.120979        -2.544186         0.014360
 C         0.198354        -0.035180         0.790166
 O         1.085072         0.100161         1.613929
 O        -0.601001         1.068472         0.263547
 H        -3.982477        -1.133413         0.666785
 H        -3.227519        -2.026228        -0.656367
 H        -2.782830        -2.627123         0.887214
 H        -1.915737        -0.377658         1.611349
 H        -2.349619         1.175032        -0.685527
 H        -1.511395        -1.254738        -2.025931
 H         0.025067        -0.074773        -1.810895
 H         0.950316        -2.739602        -0.703485
 H         0.531189        -2.790182         1.035066
 H        -0.667883        -3.353699        -0.088300
