19
Iteration:   835charge 0 multiplicity 1
 C        -2.964971        -1.601143         0.926981
 C        -1.827048        -0.647214         0.833526
 C        -1.736314         0.454722        -0.199615
 C        -1.271001        -0.633982        -1.233075
 C        -0.615018        -1.139287         0.103372
 C        -0.087119        -2.575725         0.185241
 C         0.349005        -0.032560         0.382084
 O         1.536410         0.023544         0.580908
 O        -0.511008         1.079661         0.262059
 H        -2.535565        -2.580101         1.220904
 H        -3.770398        -1.279531         1.602032
 H        -3.490870        -1.776201        -0.038035
 H        -1.671657        -0.437323         1.899640
 H        -2.496716         1.221350        -0.320479
 H        -2.095805        -1.279137        -1.593525
 H        -0.652775        -0.306156        -2.075595
 H        -0.708929        -3.259809        -0.399646
 H         1.025334        -2.582425         0.057687
 H        -0.478075        -2.928695         1.192083
