19
Iteration:  3017
 C        -3.019987        -1.731014        -0.016658
 C        -2.029607        -0.749092         0.529758
 C        -1.593189         0.461503        -0.453646
 C        -0.878382        -0.617214        -1.259941
 C        -0.476832        -1.151762         0.151341
 C        -0.001640        -2.661739         0.461598
 C         0.265545         0.052689         0.693665
 O         1.251397         0.184849         1.404471
 O        -0.612617         1.128405         0.338872
 H        -2.946674        -1.773963        -1.046335
 H        -2.987068        -2.702362         0.473101
 H        -4.006734        -1.339909         0.132320
 H        -2.092610        -0.424676         1.610053
 H        -2.437042         1.148231        -0.832535
 H        -1.516725        -1.286070        -1.884379
 H        -0.099961        -0.254778        -1.946333
 H        -0.354475        -3.423074        -0.306891
 H         1.119044        -2.666128         0.360843
 H        -0.401626        -3.180772         1.327084
