19
Iteration:    54
 C        -2.780556        -1.593428         1.611353
 C        -1.565125        -0.702960         1.151141
 C        -1.838426         0.498028         0.083850
 C        -1.672451        -0.469789        -1.123588
 C        -0.641579        -1.171324         0.028870
 C        -0.147685        -2.607438        -0.071465
 C         0.326693        -0.063966         0.094357
 O         1.537365        -0.099949         0.085605
 O        -0.427275         1.112638         0.054778
 H        -2.860024        -1.601020         2.658563
 H        -3.643948        -1.154833         1.097541
 H        -2.624474        -2.572098         1.220154
 H        -1.074151        -0.239930         2.045672
 H        -2.559540         1.278266         0.294459
 H        -2.249569        -1.173845        -1.637552
 H        -1.183306        -0.042943        -1.969295
 H         0.910440        -2.839783        -0.532407
 H        -0.085572        -3.074935         0.928042
 H        -0.863627        -3.116472        -0.654672
