19
Iteration:   242
 C        -2.920979        -1.416177         1.425405
 C        -1.664758        -0.654903         1.013979
 C        -1.757871         0.503577        -0.044933
 C        -1.602732        -0.728055        -1.074321
 C        -0.673034        -1.255981         0.061252
 C        -0.087129        -2.636988        -0.114212
 C         0.386828        -0.003804         0.154300
 O         1.585993         0.005484         0.260649
 O        -0.441162         1.067933         0.197500
 H        -2.952907        -2.444020         0.970240
 H        -3.011987        -1.494093         2.483171
 H        -3.875437        -0.935588         1.098988
 H        -1.180004        -0.279566         1.940473
 H        -2.513895         1.366475        -0.064835
 H        -2.543905        -1.290921        -1.086900
 H        -1.175655        -0.660707        -2.028616
 H         0.892782        -2.474133         0.285216
 H        -0.596679        -3.507418         0.302425
 H         0.178958        -2.810943        -1.286715
