19
Iteration:  4290charge 0 multiplicity 1
 C        -2.956746        -1.795573         0.426233
 C        -1.885675        -0.848538         0.566214
 C        -1.775363         0.461803        -0.412415
 C        -1.019744        -0.378503        -1.381451
 C        -0.519925        -1.132602        -0.112300
 C         0.252621        -2.407479        -0.045866
 C         0.209717        -0.005744         0.707714
 O         1.105727        -0.158632         1.465104
 O        -0.551602         1.166566         0.520759
 H        -2.723652        -2.819640         0.637084
 H        -3.802159        -1.610219         1.114967
 H        -3.452873        -1.685828        -0.477232
 H        -1.766978        -0.542560         1.622135
 H        -2.499879         1.248657        -0.473884
 H        -1.568638        -1.122175        -2.008347
 H        -0.476771         0.207739        -2.185129
 H         0.813452        -2.664364        -0.963084
 H         0.905348        -2.228382         0.788189
 H        -0.272400        -3.295863         0.248445
