19
Iteration:  1338
 C        -3.279605        -1.577684         0.509988
 C        -2.017913        -0.657384         0.724634
 C        -1.698374         0.349805        -0.333104
 C        -0.991156        -0.618674        -1.246843
 C        -0.492390        -1.183485         0.133125
 C         0.150759        -2.558982         0.299201
 C         0.303542         0.026726         0.572813
 O         1.462088         0.003690         0.902823
 O        -0.590409         1.073482         0.332329
 H        -4.074398        -0.796639         0.559874
 H        -3.430580        -2.062192        -0.426455
 H        -3.276923        -2.300413         1.334753
 H        -2.204250        -0.198457         1.742255
 H        -2.297754         1.183696        -0.735677
 H        -1.511780        -1.171394        -1.976486
 H        -0.108682        -0.150365        -1.781473
 H         0.869556        -2.653100         1.077306
 H        -0.649469        -3.402647         0.171095
 H         0.731648        -2.713118        -0.609454
