19
Iteration:   997charge 0 multiplicity 1
 C        -3.018114        -1.596915         0.918579
 C        -1.844469        -0.712207         0.821764
 C        -1.738923         0.496380        -0.228938
 C        -1.249118        -0.571459        -1.324943
 C        -0.544349        -1.150057        -0.068664
 C        -0.125717        -2.612035         0.097474
 C         0.391462        -0.030484         0.374114
 O         1.484728         0.094392         0.881918
 O        -0.497336         1.023199         0.310277
 H        -3.185922        -1.944038         1.985479
 H        -3.960305        -1.164806         0.507344
 H        -2.809115        -2.555619         0.343896
 H        -1.440859        -0.271988         1.754103
 H        -2.520116         1.223544        -0.432258
 H        -1.925530        -1.407394        -1.588614
 H        -0.714639        -0.232791        -2.192419
 H         0.625023        -2.955494        -0.659954
 H         0.311762        -2.675909         1.079626
 H        -0.929327        -3.432975         0.079630
