19
Iteration:  3817
 C        -3.156351        -1.752772         0.376102
 C        -1.978850        -0.832730         0.739726
 C        -1.735026         0.365419        -0.230630
 C        -0.914588        -0.394542        -1.355761
 C        -0.308420        -1.132891        -0.080215
 C         0.187207        -2.520396        -0.309580
 C         0.231709        -0.021805         0.781202
 O         1.113927         0.121389         1.570022
 O        -0.509574         1.083150         0.345174
 H        -2.970080        -2.634522        -0.311332
 H        -3.467143        -2.220855         1.311415
 H        -4.168681        -1.411927        -0.029832
 H        -2.102524        -0.591116         1.802475
 H        -2.514304         1.109262        -0.415622
 H        -1.480459        -1.101044        -2.015400
 H        -0.112303         0.144054        -1.839694
 H         1.140750        -2.521923        -0.986901
 H         0.427631        -3.076601         0.663000
 H        -0.642554        -3.147157        -0.811330
