19
Iteration:  3599
 C        -3.024931        -1.809029         0.251828
 C        -1.952753        -0.756928         0.628317
 C        -1.703494         0.420691        -0.283491
 C        -0.972140        -0.386666        -1.312582
 C        -0.423042        -1.140543         0.008968
 C         0.100249        -2.496878        -0.015753
 C         0.268604         0.036949         0.699822
 O         1.139471        -0.014501         1.517623
 O        -0.558753         1.111059         0.335187
 H        -3.790199        -2.042834         1.035011
 H        -3.626985        -1.481534        -0.575127
 H        -2.506818        -2.788457         0.027747
 H        -1.802410        -0.505597         1.729064
 H        -2.455417         1.108631        -0.645098
 H        -1.812334        -1.061964        -1.690670
 H        -0.211276        -0.118228        -2.007946
 H         1.096361        -2.628437        -0.517984
 H         0.457380        -2.846662         0.985042
 H        -0.467309        -3.247269        -0.653437
