19
Iteration:  4233charge 0 multiplicity 1
 C        -3.094812        -1.774598         0.222007
 C        -1.921594        -0.909547         0.660357
 C        -1.693707         0.456627        -0.187785
 C        -1.002583        -0.400319        -1.311649
 C        -0.447083        -1.225021         0.070721
 C         0.090746        -2.539507        -0.124979
 C         0.316268        -0.002130         0.729959
 O         1.326468         0.166526         1.358889
 O        -0.678007         1.109137         0.438711
 H        -3.231265        -2.523491         0.992197
 H        -4.002760        -1.251153         0.036106
 H        -2.838099        -2.403531        -0.582542
 H        -1.975670        -0.916362         1.741208
 H        -2.572445         1.072800        -0.228774
 H        -1.600713        -1.137262        -1.878219
 H        -0.270102         0.303903        -1.830066
 H         1.151621        -2.313216        -0.466780
 H         0.183039        -3.188878         0.754277
 H        -0.498629        -2.975063        -0.945871
