19
Iteration:  2450
 C        -3.159312        -1.603709        -0.086620
 C        -2.097015        -0.719906         0.467487
 C        -1.562708         0.494586        -0.561416
 C        -0.772032        -0.728983        -1.282270
 C        -0.619401        -1.256894         0.227222
 C         0.163697        -2.552354         0.697826
 C         0.189290         0.052959         0.719862
 O         1.134795         0.064100         1.433450
 O        -0.471398         1.126906         0.201207
 H        -2.986524        -1.782262        -1.142537
 H        -3.206745        -2.513296         0.429338
 H        -4.125363        -1.163328         0.052651
 H        -2.181210        -0.512749         1.539116
 H        -2.314630         1.239556        -0.894342
 H        -1.351276        -1.387857        -1.977583
 H         0.205888        -0.409135        -1.761610
 H         0.197091        -3.287624        -0.127740
 H         1.269700        -2.175409         0.902168
 H        -0.151222        -2.951948         1.687380
