19
Iteration:  2217
 C        -3.031020        -1.765916        -0.017338
 C        -1.960181        -0.684826         0.472194
 C        -1.597181         0.347809        -0.549980
 C        -0.721752        -0.577921        -1.246149
 C        -0.500368        -1.218882         0.165547
 C        -0.182932        -2.581324         0.653419
 C         0.226793         0.048011         0.715694
 O         1.162029         0.129581         1.452913
 O        -0.486542         1.187268         0.159659
 H        -2.677235        -2.184103        -0.951227
 H        -3.273724        -2.470017         0.692415
 H        -3.893454        -1.183701        -0.291326
 H        -2.117452        -0.540095         1.547344
 H        -2.367813         0.988417        -1.001348
 H        -1.343657        -1.315479        -1.885970
 H         0.084183        -0.037686        -1.794666
 H        -0.388466        -3.405528        -0.113671
 H         0.824712        -2.749702         1.100548
 H        -0.765740        -2.628691         1.620707
