19
Iteration:  2281charge 0 multiplicity 1
 C        -3.246216        -1.553552        -0.082355
 C        -2.073532        -0.723471         0.416923
 C        -1.520921         0.307745        -0.578534
 C        -0.558431        -0.695525        -1.224148
 C        -0.545814        -1.184949         0.276037
 C         0.038421        -2.589302         0.661920
 C         0.192765         0.069492         0.735433
 O         1.246689         0.149081         1.353103
 O        -0.632123         1.097870         0.295314
 H        -3.222424        -1.841997        -1.151011
 H        -3.413961        -2.444958         0.549489
 H        -4.215007        -1.051030         0.003197
 H        -2.260587        -0.234189         1.377405
 H        -2.307621         0.832907        -1.032342
 H        -1.104755        -1.360600        -1.984112
 H         0.301736        -0.280492        -1.746679
 H        -0.693726        -3.395260         0.298663
 H         0.973672        -2.696481         0.153323
 H         0.360521        -2.701517         1.744189
