19
Iteration:  1315charge 0 multiplicity 1
 C        -3.217390        -1.610840         0.571215
 C        -1.914448        -0.711775         0.650519
 C        -1.678710         0.422231        -0.313438
 C        -1.016881        -0.502116        -1.287800
 C        -0.582062        -1.219004         0.082095
 C         0.083975        -2.541053         0.338767
 C         0.255870        -0.083603         0.535507
 O         1.410304         0.027017         0.873012
 O        -0.543548         1.095311         0.357590
 H        -4.012023        -1.045072         0.039617
 H        -3.031482        -2.454701        -0.027625
 H        -3.343565        -2.003225         1.581022
 H        -1.769702        -0.450147         1.740084
 H        -2.342198         1.288466        -0.536521
 H        -1.642893        -1.127822        -1.874000
 H        -0.126635        -0.260642        -1.953201
 H        -0.033430        -2.633471         1.418994
 H        -0.239351        -3.450776        -0.302052
 H         1.197168        -2.528491         0.330082
