19
Iteration:  1538charge 0 multiplicity 1
 C        -3.237557        -1.717479         0.235990
 C        -2.032844        -0.707330         0.605546
 C        -1.657622         0.448307        -0.362057
 C        -0.937575        -0.635936        -1.213948
 C        -0.528070        -1.109266         0.238693
 C         0.146639        -2.510608         0.390297
 C         0.278609         0.035853         0.605960
 O         1.363993        -0.083537         1.091112
 O        -0.550230         1.203113         0.283833
 H        -2.972332        -2.672590        -0.158931
 H        -3.883722        -1.752238         1.182395
 H        -3.777256        -1.202979        -0.558441
 H        -1.993248        -0.400601         1.688960
 H        -2.226063         1.259769        -0.874383
 H        -1.594091        -1.415437        -1.744414
 H        -0.162007        -0.250334        -1.828869
 H         0.848201        -2.649225         1.292588
 H        -0.736589        -3.292014         0.499809
 H         0.787955        -2.838773        -0.463361
