19
Iteration:  3281charge 0 multiplicity 1
 C        -3.139319        -1.797665         0.214477
 C        -1.961021        -0.789245         0.522776
 C        -1.691650         0.495070        -0.402054
 C        -0.731607        -0.438956        -1.375125
 C        -0.501499        -1.172602         0.068233
 C         0.073601        -2.641784         0.241302
 C         0.213642        -0.042565         0.786551
 O         1.206940         0.137962         1.430413
 O        -0.588628         1.132550         0.345981
 H        -3.857342        -1.670787         1.026987
 H        -3.756361        -1.534265        -0.708656
 H        -2.804579        -2.796308         0.028165
 H        -2.036445        -0.491229         1.606989
 H        -2.356637         1.278453        -0.709573
 H        -1.226583        -1.169237        -2.038841
 H         0.059237         0.187207        -1.873836
 H         0.314829        -2.936158        -0.777214
 H         0.935871        -2.831003         0.775566
 H        -0.626110        -3.367569         0.628011
