19
Iteration:   149
 C        -2.919748        -1.535774         1.576323
 C        -1.743798        -0.683803         1.086177
 C        -1.776451         0.426528        -0.022802
 C        -1.522876        -0.468326        -1.155042
 C        -0.676126        -1.197528         0.037853
 C        -0.077437        -2.547886        -0.030950
 C         0.394882        -0.087933         0.171418
 O         1.578568        -0.103408        -0.013538
 O        -0.463069         1.061046         0.246290
 H        -2.502462        -2.202335         2.358532
 H        -3.795155        -0.876649         1.986146
 H        -3.341867        -2.128873         0.726389
 H        -1.284977        -0.226131         1.995154
 H        -2.469047         1.237053         0.017224
 H        -2.401543        -0.938368        -1.689556
 H        -0.848424        -0.051672        -2.002927
 H        -0.722070        -3.447319         0.258580
 H         0.376531        -2.688265        -1.039341
 H         0.698263        -2.533671         0.703210
