19
Iteration:  3331charge 0 multiplicity 1
 C        -3.046444        -1.674714         0.342947
 C        -1.929089        -0.744917         0.542285
 C        -1.626556         0.408469        -0.441003
 C        -0.890860        -0.504550        -1.331953
 C        -0.468769        -1.181713         0.008875
 C         0.136229        -2.555355         0.029484
 C         0.203053        -0.024874         0.775888
 O         1.081454         0.084666         1.618232
 O        -0.575169         1.089571         0.243302
 H        -3.983522        -1.209698         0.593685
 H        -3.168630        -2.062155        -0.679643
 H        -2.819807        -2.568601         0.974979
 H        -2.011636        -0.345445         1.539479
 H        -2.363644         1.216771        -0.723480
 H        -1.500116        -1.112730        -1.987811
 H        -0.023329        -0.097956        -1.901379
 H         1.003500        -2.675027        -0.655945
 H         0.503379        -2.863826         1.101575
 H        -0.587384        -3.395880        -0.110549
