19
Iteration:  4314charge 0 multiplicity 1
 C        -3.089592        -1.847048         0.341989
 C        -1.971452        -0.837856         0.591106
 C        -1.637996         0.499650        -0.230924
 C        -0.958080        -0.351415        -1.317001
 C        -0.474960        -1.157648        -0.105113
 C         0.300362        -2.461103        -0.050577
 C         0.239404         0.006923         0.649539
 O         1.132849        -0.041202         1.464256
 O        -0.613362         1.111205         0.413365
 H        -2.733624        -2.864699         0.454327
 H        -3.803456        -1.847892         1.185112
 H        -3.784628        -1.735465        -0.489226
 H        -1.951414        -0.571119         1.681952
 H        -2.458641         1.249749        -0.341110
 H        -1.676899        -0.820927        -1.993078
 H        -0.300135         0.117919        -2.037585
 H         0.445989        -2.897364        -0.977923
 H         1.131628        -2.504350         0.598431
 H        -0.388534        -3.124912         0.380712
