19
Iteration:  3395charge 0 multiplicity 1
 C        -3.123106        -1.709428         0.126480
 C        -2.002397        -0.771486         0.591354
 C        -1.712647         0.465815        -0.323216
 C        -0.947602        -0.501630        -1.385193
 C        -0.477517        -1.190476         0.074233
 C         0.220340        -2.551062         0.314162
 C         0.232808         0.031801         0.663673
 O         1.274847         0.022265         1.272398
 O        -0.588632         1.101868         0.474290
 H        -3.566562        -1.330828        -0.783324
 H        -2.803839        -2.732673         0.007253
 H        -3.841181        -1.859401         0.955095
 H        -2.184109        -0.333606         1.557045
 H        -2.476907         1.243692        -0.583413
 H        -1.575478        -1.203508        -1.976148
 H        -0.071146        -0.011133        -1.846278
 H         1.316105        -2.499082         0.569322
 H        -0.398696        -3.138874         1.140187
 H         0.030972        -3.063785        -0.674151
