19
Iteration:  1977charge 0 multiplicity 1
 C        -3.257228        -1.579278        -0.125919
 C        -1.978332        -0.748119         0.524232
 C        -1.626081         0.404870        -0.527345
 C        -0.749137        -0.798645        -1.171809
 C        -0.445095        -1.216931         0.240830
 C         0.071235        -2.658962         0.493304
 C         0.229453         0.118931         0.781149
 O         1.180529         0.225978         1.540384
 O        -0.496695         1.120481         0.118967
 H        -3.187268        -1.674927        -1.241428
 H        -3.566894        -2.530403         0.345154
 H        -4.059627        -0.744448         0.022770
 H        -2.231127        -0.395545         1.534647
 H        -2.291032         1.100723        -0.979396
 H        -1.473064        -1.573000        -1.501252
 H        -0.050764        -0.550477        -1.938306
 H         0.174887        -3.244535        -0.432379
 H         1.015080        -2.575290         0.917085
 H        -0.517839        -3.271437         1.202455
