19
Iteration:  3561charge 0 multiplicity 1
 C        -3.197092        -1.716812         0.392284
 C        -1.903315        -0.815214         0.591075
 C        -1.639776         0.420056        -0.363161
 C        -0.819006        -0.440155        -1.290333
 C        -0.412957        -1.169638        -0.047741
 C         0.191371        -2.634376        -0.173054
 C         0.236260         0.004898         0.766030
 O         1.097066         0.155702         1.574711
 O        -0.611679         1.058449         0.387968
 H        -3.503698        -2.109010         1.329123
 H        -3.955722        -1.226355        -0.250550
 H        -2.927462        -2.517977        -0.256647
 H        -1.932187        -0.455272         1.581902
 H        -2.384274         1.142930        -0.767539
 H        -1.608033        -0.911217        -1.759994
 H        -0.183294        -0.022059        -2.095034
 H         0.697645        -2.474574        -1.099725
 H         0.844096        -2.928886         0.671581
 H        -0.595081        -3.368809        -0.194958
