19
Iteration:   886
 C        -3.188996        -1.540500         0.825505
 C        -1.779791        -0.709409         0.921054
 C        -1.746344         0.415704        -0.138807
 C        -1.287737        -0.529058        -1.126552
 C        -0.645114        -1.228734         0.084853
 C         0.063964        -2.600664         0.193036
 C         0.326670        -0.095613         0.398928
 O         1.507347         0.103597         0.565406
 O        -0.435389         1.006722         0.191846
 H        -3.503738        -1.973212         1.761355
 H        -4.019380        -0.748117         0.659912
 H        -3.112951        -2.230205        -0.033968
 H        -1.599122        -0.459419         1.990286
 H        -2.534206         1.216532        -0.341707
 H        -1.984471        -1.167148        -1.593700
 H        -0.553053        -0.088136        -1.840695
 H        -0.284124        -3.366861         0.899990
 H         0.031416        -2.886890        -0.831231
 H         1.194937        -2.269967         0.334767
