19
Iteration:  1170
 C        -3.156169        -1.581050         0.691378
 C        -1.981392        -0.664266         0.841058
 C        -1.782293         0.423493        -0.203637
 C        -1.225541        -0.554085        -1.230218
 C        -0.491000        -1.151772         0.088820
 C         0.130185        -2.584586         0.140041
 C         0.310324         0.010256         0.514434
 O         1.441875        -0.056326         0.954413
 O        -0.420482         1.086016         0.126460
 H        -2.954939        -2.489253         0.203907
 H        -3.640283        -1.836727         1.638760
 H        -3.858948        -0.952586         0.157703
 H        -1.757266        -0.329284         1.869774
 H        -2.456430         1.150239        -0.633658
 H        -1.937946        -1.342913        -1.681439
 H        -0.625796        -0.269398        -2.080547
 H         1.271443        -2.565930         0.318963
 H        -0.297333        -3.295978         0.794277
 H        -0.036929        -2.981256        -0.952543
