19
Iteration:   446charge 0 multiplicity 1
 C        -3.093420        -1.444976         1.131128
 C        -1.745736        -0.683160         1.114520
 C        -1.754056         0.398393        -0.010575
 C        -1.556513        -0.653511        -1.102691
 C        -0.563882        -1.264272         0.100261
 C         0.008958        -2.601454         0.105954
 C         0.399631        -0.018963         0.258967
 O         1.603759         0.066240         0.407709
 O        -0.435197         1.040678        -0.049572
 H        -3.183873        -2.066761         2.043132
 H        -3.946657        -0.788311         1.081967
 H        -3.126566        -2.124698         0.260617
 H        -1.408767        -0.195181         2.040686
 H        -2.596074         1.148381        -0.021813
 H        -2.498671        -1.098150        -1.439549
 H        -1.177791        -0.247036        -2.046004
 H         0.446298        -2.989297         1.092445
 H        -0.687149        -3.319668        -0.392503
 H         0.849179        -2.480975        -0.516375
