19
Iteration:  2655charge 0 multiplicity 1
 C        -3.120163        -1.587342         0.109031
 C        -1.972402        -0.656778         0.507073
 C        -1.505261         0.390323        -0.588822
 C        -0.765559        -0.786641        -1.322306
 C        -0.480443        -1.231950         0.257810
 C         0.049164        -2.638895         0.398345
 C         0.232971         0.074786         0.789821
 O         1.047264         0.235900         1.648079
 O        -0.555372         1.105677         0.080659
 H        -3.239572        -1.630145        -1.040964
 H        -2.892363        -2.640830         0.391129
 H        -4.190511        -1.428831         0.522648
 H        -2.165287        -0.198512         1.467590
 H        -2.260583         0.972806        -1.015688
 H        -1.398889        -1.531687        -1.812844
 H         0.009244        -0.477184        -2.040110
 H        -0.423175        -3.176273        -0.361587
 H         1.173459        -2.606154         0.149167
 H        -0.058885        -3.161207         1.325159
