19
Iteration:   421charge 0 multiplicity 1
 C        -3.093220        -1.488952         1.185871
 C        -1.785888        -0.681361         1.069384
 C        -1.845524         0.511713        -0.016035
 C        -1.468730        -0.664693        -1.080817
 C        -0.560738        -1.233293         0.026338
 C         0.079170        -2.619710         0.130894
 C         0.356801        -0.037360         0.126291
 O         1.569010        -0.007011         0.349933
 O        -0.409090         1.092070         0.094036
 H        -3.343150        -1.491719         2.219069
 H        -3.932879        -0.889314         0.716961
 H        -3.118684        -2.507848         0.806586
 H        -1.445617        -0.262527         2.016562
 H        -2.629572         1.252803        -0.049929
 H        -2.236545        -1.340890        -1.449802
 H        -1.072529        -0.388130        -2.110679
 H        -0.214141        -3.177230         1.037865
 H        -0.217181        -3.183992        -0.786980
 H         1.173641        -2.472744         0.195095
