19
Iteration:  2720
 C        -3.081853        -1.776156        -0.055444
 C        -2.003202        -0.728845         0.387762
 C        -1.623839         0.415627        -0.578695
 C        -0.653985        -0.589680        -1.286988
 C        -0.580837        -1.148782         0.181847
 C        -0.006695        -2.464196         0.821448
 C         0.132550         0.026263         0.680331
 O         1.205283         0.036986         1.223873
 O        -0.577604         1.128124         0.425249
 H        -2.789648        -2.011054        -1.126005
 H        -3.032364        -2.675094         0.543299
 H        -4.135177        -1.372158        -0.146611
 H        -2.203807        -0.304109         1.391025
 H        -2.135428         1.177675        -1.046474
 H        -0.944774        -1.400678        -1.964993
 H         0.269022        -0.252942        -1.719474
 H        -0.675142        -3.275287         0.644824
 H         1.068170        -2.657222         0.367761
 H         0.029717        -2.340424         1.913160
