19
Iteration:  4895
 C        -3.173251        -1.828664        -0.109413
 C        -2.012788        -0.906521         0.559777
 C        -1.717473         0.400717        -0.126391
 C        -0.902619        -0.284826        -1.245862
 C        -0.529879        -1.212253         0.090685
 C         0.048930        -2.609519         0.202829
 C         0.338885        -0.027291         0.728910
 O         1.438188         0.292656         1.080824
 O        -0.640148         1.041063         0.686409
 H        -2.933879        -2.795216         0.385307
 H        -4.146551        -1.396638         0.228119
 H        -3.203618        -1.907997        -1.209275
 H        -2.186883        -0.848963         1.683017
 H        -2.488461         1.158499        -0.331384
 H        -1.404776        -0.916635        -2.006599
 H         0.001898         0.212378        -1.694108
 H        -0.699892        -3.334184        -0.123897
 H         0.846859        -2.647783        -0.513897
 H         0.514722        -2.897096         1.156945
