19
Iteration:  1937
 C        -3.170381        -1.633833         0.220544
 C        -2.007197        -0.658320         0.392653
 C        -1.478322         0.456926        -0.658787
 C        -0.690567        -0.615914        -1.316819
 C        -0.595964        -1.213029         0.104475
 C         0.111737        -2.521065         0.620251
 C         0.129103        -0.040793         0.704130
 O         1.015250         0.011482         1.495933
 O        -0.494161         1.111260         0.167002
 H        -3.401373        -1.738740        -0.865782
 H        -2.828441        -2.621121         0.484401
 H        -4.054309        -1.484736         0.782026
 H        -1.980185        -0.214746         1.391638
 H        -2.127041         1.272700        -1.019254
 H        -1.122253        -1.433471        -1.959544
 H         0.289130        -0.345601        -1.654351
 H         0.710591        -2.960456        -0.154714
 H         0.817706        -2.187885         1.484098
 H        -0.546806        -3.198289         1.147467
