19
Iteration:  2203
 C        -2.990244        -1.664677        -0.052646
 C        -1.931862        -0.819819         0.510456
 C        -1.543803         0.493020        -0.453206
 C        -0.817784        -0.634700        -1.383641
 C        -0.515546        -1.181156         0.145743
 C        -0.098279        -2.579974         0.740400
 C         0.203941         0.056922         0.650318
 O         1.056366         0.147291         1.506541
 O        -0.450765         1.099044         0.147997
 H        -2.679763        -2.318289        -0.861259
 H        -3.206631        -2.467005         0.714002
 H        -3.902857        -1.122459        -0.215086
 H        -2.150418        -0.412889         1.492235
 H        -2.190315         1.211849        -0.823102
 H        -1.519638        -1.171900        -2.089000
 H         0.103298        -0.403837        -1.917566
 H        -0.337442        -3.409277        -0.016511
 H         0.948143        -2.606770         0.818921
 H        -0.744327        -2.930082         1.582544
