19
Iteration:  4295
 C        -3.012183        -1.808468         0.432099
 C        -1.881761        -0.829110         0.551920
 C        -1.793791         0.471820        -0.368516
 C        -1.008130        -0.392892        -1.412809
 C        -0.463428        -1.098126        -0.095878
 C         0.241557        -2.429575        -0.034913
 C         0.175098        -0.036448         0.691925
 O         1.084767        -0.139768         1.446592
 O        -0.523358         1.174336         0.529464
 H        -2.634273        -2.870281         0.585175
 H        -3.770329        -1.693304         1.224364
 H        -3.483637        -1.690613        -0.642560
 H        -1.659130        -0.613095         1.611373
 H        -2.532885         1.316791        -0.469342
 H        -1.568987        -1.121128        -1.987643
 H        -0.364604         0.137568        -2.084019
 H         0.822950        -2.667487        -0.931373
 H         1.073777        -2.161575         0.691523
 H        -0.276768        -3.379678         0.274247
