19
Iteration:  2205charge 0 multiplicity 1
 C        -2.982174        -1.676926        -0.043226
 C        -1.930924        -0.824513         0.506925
 C        -1.560611         0.465638        -0.454778
 C        -0.794982        -0.610634        -1.352349
 C        -0.521401        -1.181263         0.151959
 C        -0.114195        -2.584285         0.732951
 C         0.203558         0.062754         0.645711
 O         1.071042         0.142892         1.499176
 O        -0.453382         1.114486         0.143027
 H        -2.701149        -2.297668        -0.879368
 H        -3.228072        -2.419345         0.652339
 H        -3.887812        -1.163937        -0.231145
 H        -2.113846        -0.397004         1.489048
 H        -2.179048         1.169455        -0.914907
 H        -1.547549        -1.116856        -2.080996
 H         0.116302        -0.397881        -1.932083
 H        -0.396960        -3.437622        -0.025980
 H         0.951957        -2.599640         0.872539
 H        -0.799998        -2.920915         1.576809
