19
Iteration:  4283charge 0 multiplicity 1
 C        -2.959929        -1.806185         0.419641
 C        -1.865673        -0.798400         0.591600
 C        -1.720071         0.426649        -0.359892
 C        -1.037054        -0.356316        -1.384822
 C        -0.556548        -1.144208        -0.132925
 C         0.273414        -2.392607        -0.053805
 C         0.208642         0.058147         0.685332
 O         1.170802        -0.173430         1.515849
 O        -0.615053         1.100870         0.463805
 H        -2.698050        -2.872518         0.650982
 H        -3.773331        -1.374174         1.050204
 H        -3.450074        -1.871857        -0.665864
 H        -1.935473        -0.441056         1.646723
 H        -2.512091         1.195417        -0.638146
 H        -1.810594        -0.947201        -1.865364
 H        -0.367045         0.143281        -2.014393
 H         0.805893        -2.552128        -0.941049
 H         0.902604        -2.427993         0.868011
 H        -0.483742        -3.203424         0.108031
