19
Iteration:  1814charge 0 multiplicity 1
 C        -3.256229        -1.547385         0.057408
 C        -2.021960        -0.721640         0.428594
 C        -1.543325         0.426299        -0.482853
 C        -0.804250        -0.658861        -1.333809
 C        -0.542107        -1.303463         0.088046
 C         0.156456        -2.608813         0.725508
 C         0.264018         0.017275         0.623601
 O         1.283066         0.058324         1.277365
 O        -0.653863         1.151534         0.375473
 H        -3.011803        -2.579429        -0.057779
 H        -4.013908        -1.469084         0.831945
 H        -3.637018        -1.217824        -0.959391
 H        -2.148752        -0.166708         1.365268
 H        -2.211991         1.125545        -1.001979
 H        -1.518281        -1.137896        -1.966011
 H         0.098607        -0.335546        -1.862123
 H         0.338690        -2.160824         1.756936
 H        -0.487548        -3.441858         0.901277
 H         1.178722        -2.879144         0.310902
