19
Iteration:   455charge 0 multiplicity 1
 C        -3.004797        -1.449932         1.118615
 C        -1.691115        -0.681923         1.045644
 C        -1.802762         0.434494        -0.045751
 C        -1.542806        -0.719026        -1.116838
 C        -0.676848        -1.233895         0.127012
 C         0.002453        -2.611568         0.088772
 C         0.360485        -0.008455         0.244540
 O         1.547186         0.079179         0.414762
 O        -0.364354         1.079361         0.021534
 H        -3.042771        -2.122504         1.953066
 H        -3.792919        -0.674741         1.289828
 H        -3.364379        -2.011279         0.252805
 H        -1.446052        -0.469830         2.085528
 H        -2.531141         1.263801        -0.070418
 H        -2.294482        -1.461853        -1.179973
 H        -0.869569        -0.498289        -1.980644
 H         0.531370        -2.902314         1.033658
 H        -0.782239        -3.413491        -0.141313
 H         0.635839        -2.662481        -0.765125
