19
Iteration:  3531
 C        -3.143873        -1.708190         0.282771
 C        -1.895691        -0.827186         0.552162
 C        -1.697568         0.450188        -0.404411
 C        -0.887480        -0.467934        -1.291391
 C        -0.487897        -1.151913        -0.032919
 C         0.242137        -2.462144         0.029065
 C         0.208459        -0.012727         0.738815
 O         1.191070         0.012995         1.473901
 O        -0.639546         1.053650         0.453092
 H        -3.316964        -2.507000         1.029046
 H        -3.952769        -0.961655         0.316333
 H        -3.152369        -2.182666        -0.715285
 H        -1.994652        -0.528813         1.626293
 H        -2.395066         1.240995        -0.736707
 H        -1.728889        -1.062244        -1.813347
 H        -0.158111        -0.044478        -1.960855
 H         0.875163        -2.702067        -0.868830
 H         1.085866        -2.445790         0.861063
 H        -0.461115        -3.377752        -0.001091
