19
Iteration:   755charge 0 multiplicity 1
 C        -3.140849        -1.422024         1.142220
 C        -1.901252        -0.573445         0.905464
 C        -1.769340         0.450003        -0.210895
 C        -1.273889        -0.673435        -1.263379
 C        -0.568627        -1.242080         0.093591
 C         0.149078        -2.648566         0.044609
 C         0.330206        -0.059132         0.343424
 O         1.506548        -0.037640         0.655326
 O        -0.507608         1.083524         0.151216
 H        -2.900610        -2.366405         1.641534
 H        -3.857541        -0.939830         1.842902
 H        -3.697644        -1.785487         0.277028
 H        -1.712576        -0.176398         1.910379
 H        -2.501608         1.257248        -0.461022
 H        -2.097104        -1.222657        -1.619736
 H        -0.643698        -0.206815        -2.012102
 H         1.149651        -2.283366        -0.107462
 H         0.273293        -3.343102         0.842212
 H        -0.202971        -3.308894        -0.863987
