19
Iteration:  2726charge 0 multiplicity 1
 C        -3.099606        -1.791539        -0.109398
 C        -2.046902        -0.732629         0.388860
 C        -1.522458         0.395688        -0.512532
 C        -0.667884        -0.617131        -1.284586
 C        -0.562964        -1.183196         0.239821
 C        -0.003586        -2.400522         0.792472
 C         0.120355         0.070229         0.708548
 O         1.197734         0.046624         1.180193
 O        -0.579552         1.138449         0.416994
 H        -2.856114        -2.189646        -1.074529
 H        -3.267604        -2.674857         0.577602
 H        -4.058690        -1.340830        -0.246036
 H        -2.144452        -0.501918         1.478155
 H        -2.059081         1.289053        -1.026111
 H        -1.169703        -1.451740        -1.816058
 H         0.382401        -0.447482        -1.711678
 H        -0.710997        -3.220314         0.415869
 H         0.924892        -2.592971         0.328699
 H         0.145783        -2.376930         1.886027
