19
Iteration:   842
 C        -2.973387        -1.624081         0.895511
 C        -1.890542        -0.640144         0.852061
 C        -1.797262         0.442411        -0.229910
 C        -1.244232        -0.634686        -1.195829
 C        -0.555270        -1.186400         0.086227
 C        -0.114056        -2.566749         0.182043
 C         0.369388        -0.010958         0.387007
 O         1.572218        -0.013433         0.563105
 O        -0.522898         1.123697         0.305450
 H        -2.704583        -2.537521         1.397756
 H        -3.669039        -1.170271         1.649805
 H        -3.436959        -1.789132        -0.073488
 H        -1.671508        -0.140061         1.825310
 H        -2.576664         1.208592        -0.529527
 H        -2.091304        -1.226125        -1.468356
 H        -0.664570        -0.392909        -2.103668
 H        -0.675738        -3.208507        -0.487435
 H         0.910862        -2.624587        -0.101633
 H        -0.045306        -2.898338         1.285187
