19
Iteration:  2340
 C        -3.121775        -1.650128         0.087011
 C        -2.036139        -0.674176         0.446612
 C        -1.537902         0.466519        -0.669037
 C        -0.743915        -0.702958        -1.316448
 C        -0.512646        -1.178516         0.121078
 C         0.098003        -2.536754         0.596504
 C         0.177234         0.036577         0.744888
 O         1.006583         0.075094         1.624154
 O        -0.444122         1.074222         0.146114
 H        -3.024781        -2.068408        -0.890826
 H        -3.093012        -2.506343         0.660996
 H        -4.039899        -1.091459         0.115378
 H        -2.316275        -0.256599         1.441024
 H        -2.251124         1.275973        -1.070631
 H        -1.395072        -1.379459        -1.801061
 H         0.184271        -0.367022        -1.891616
 H        -0.611041        -3.343111         0.633564
 H         0.845172        -2.967272        -0.203241
 H         0.510686        -2.470684         1.604052
