19
Iteration:   505charge 0 multiplicity 1
 C        -2.963648        -1.569457         1.359813
 C        -1.785689        -0.659119         0.817735
 C        -1.811179         0.472288        -0.174399
 C        -1.329485        -0.552138        -1.242606
 C        -0.692905        -1.258144         0.036157
 C        -0.096663        -2.563940         0.214398
 C         0.360062        -0.056879         0.243761
 O         1.524954         0.019114         0.498001
 O        -0.408864         1.062537         0.053404
 H        -2.605964        -2.616962         1.408958
 H        -3.254858        -1.286427         2.402532
 H        -3.919930        -1.664676         0.823205
 H        -1.537251        -0.303381         1.834310
 H        -2.534366         1.238977        -0.304156
 H        -2.114266        -1.225248        -1.661883
 H        -0.616127        -0.113228        -1.994720
 H         0.938351        -2.406010         0.064150
 H        -0.195180        -3.033076         1.155101
 H        -0.484919        -3.310478        -0.608989
