19
Iteration:  3545charge 0 multiplicity 1
 C        -3.139781        -1.655022         0.316173
 C        -1.989616        -0.780963         0.537238
 C        -1.691747         0.373824        -0.358949
 C        -0.926797        -0.521864        -1.415875
 C        -0.380408        -1.170481        -0.002270
 C         0.248973        -2.556351        -0.109257
 C         0.246066         0.036981         0.745361
 O         1.141129         0.081217         1.537101
 O        -0.612777         1.093562         0.513571
 H        -3.366325        -2.150882         1.331384
 H        -4.082009        -1.098509         0.190209
 H        -3.089537        -2.495487        -0.493707
 H        -1.878710        -0.460423         1.635968
 H        -2.439963         1.137536        -0.619886
 H        -1.331911        -1.348568        -2.186993
 H        -0.049466        -0.025519        -1.942844
 H         0.779288        -2.677476        -1.091122
 H         0.876883        -2.744555         0.805963
 H        -0.590164        -3.304287         0.070917
