19
Iteration:  2313charge 0 multiplicity 1
 C        -2.827461        -1.436586         1.701124
 C        -1.733372        -0.511767         1.140729
 C        -2.051303         0.369613        -0.043224
 C        -1.579746        -0.751529        -0.992569
 C        -0.695813        -1.205400         0.174017
 O        -0.174702        -2.517770         0.215544
 C         0.272076        -0.005580         0.187246
 O         1.459658        -0.048202         0.376636
 C        -0.652490         1.215228        -0.191385
 H        -3.134868        -2.299569         1.042194
 H        -2.645225        -1.851485         2.734298
 H        -3.759122        -0.909208         1.873359
 H        -1.247357         0.026329         2.036443
 H        -3.010619         0.890078        -0.168690
 H        -2.537219        -1.266920        -1.204529
 H        -1.184432        -0.594978        -2.009997
 H         0.830954        -2.481353         0.203344
 H        -0.414746         1.987203         0.576142
 H        -0.377394         1.577362        -1.131501
