19
Iteration:  1158charge 0 multiplicity 1
 C        -2.980688        -1.472916         1.688242
 C        -1.732044        -0.498492         1.194590
 C        -1.946774         0.372726        -0.144717
 C        -1.617278        -0.845780        -1.039095
 C        -0.672998        -1.230912         0.171804
 O        -0.114029        -2.461272         0.312045
 C         0.246877         0.005299         0.169977
 O         1.458231         0.010147         0.342892
 C        -0.614086         1.189367        -0.144071
 H        -3.452673        -2.052730         0.925742
 H        -2.693767        -2.285615         2.282530
 H        -3.638249        -0.860858         2.319952
 H        -1.446615         0.143695         2.080127
 H        -2.872918         0.998082        -0.162326
 H        -2.470226        -1.419269        -1.413117
 H        -1.060435        -0.665623        -1.980327
 H         0.854676        -2.270610         0.354525
 H        -0.552931         1.946835         0.641068
 H        -0.504851         1.563830        -1.149419
