19
Iteration:  2889charge 0 multiplicity 1
 C        -3.011514        -1.348110         1.617134
 C        -1.736956        -0.555672         1.094378
 C        -1.929486         0.313009        -0.181365
 C        -1.709689        -1.009628        -0.995593
 C        -0.603443        -1.203628         0.124087
 O        -0.009955        -2.461214         0.406429
 C         0.286839         0.046292         0.124281
 O         1.377595         0.140947         0.606922
 C        -0.608285         1.138650        -0.383398
 H        -3.230347        -0.989120         2.694174
 H        -3.855860        -1.342972         0.988570
 H        -2.656591        -2.337902         1.847537
 H        -1.227441        -0.043846         1.904177
 H        -2.832069         0.941953        -0.373884
 H        -2.541973        -1.698063        -0.881233
 H        -1.462830        -0.933421        -2.094176
 H         0.464011        -2.283451         1.296726
 H        -0.473457         2.028332         0.207176
 H        -0.446584         1.327991        -1.454802
