19
Iteration:  1287
 C        -2.985808        -1.324127         1.548601
 C        -1.712177        -0.506299         1.152706
 C        -1.988727         0.348601        -0.078109
 C        -1.577396        -0.886527        -0.980921
 C        -0.650441        -1.266252         0.216964
 O        -0.079953        -2.588129         0.321822
 C         0.282463         0.035052         0.156542
 O         1.484271         0.043295         0.249070
 C        -0.706960         1.248291        -0.025142
 H        -3.526247        -1.793976         0.606883
 H        -2.867685        -2.082109         2.292854
 H        -3.875390        -0.771980         1.816345
 H        -1.455281        -0.022519         2.019201
 H        -3.048570         0.607568        -0.261259
 H        -2.448633        -1.494607        -0.809270
 H        -0.994546        -0.872738        -1.949412
 H         0.877631        -2.393798         0.407481
 H        -0.795557         1.972203         0.808482
 H        -0.395138         1.894647        -0.817540
