19
Iteration:   132charge 0 multiplicity 1
 C        -3.011481        -1.392067         1.583035
 C        -1.816310        -0.460007         1.239096
 C        -2.018527         0.379018         0.007848
 C        -1.711745        -0.820780        -0.902764
 C        -0.673314        -1.249514         0.101712
 O         0.032479        -2.454113         0.203253
 C         0.315587        -0.019626         0.110056
 O         1.481964        -0.040641         0.366278
 C        -0.619833         1.115288        -0.166152
 H        -3.071273        -2.405622         1.162524
 H        -3.022638        -1.470222         2.674962
 H        -3.910599        -0.856403         1.388551
 H        -1.377927         0.093653         2.095605
 H        -2.925954         0.901289        -0.038443
 H        -2.441896        -1.567566        -1.053541
 H        -1.201793        -0.608889        -1.856382
 H         0.812354        -2.193676         0.645183
 H        -0.392567         1.931199         0.480534
 H        -0.402773         1.573011        -1.151395
