19
Iteration:  1914charge 0 multiplicity 1
 C        -3.051319        -1.431106         1.654879
 C        -1.864153        -0.637230         1.126207
 C        -1.920091         0.382017        -0.158469
 C        -1.528502        -0.797397        -1.131891
 C        -0.705985        -1.232964         0.220596
 O        -0.045380        -2.380128         0.553628
 C         0.269856         0.002813         0.095225
 O         1.476001        -0.047798         0.078469
 C        -0.624375         1.186524         0.082831
 H        -3.678476        -1.854471         0.933858
 H        -2.544237        -2.168211         2.384197
 H        -3.674000        -0.688545         2.261146
 H        -1.652843        -0.239724         2.075811
 H        -2.813607         0.897885        -0.523027
 H        -2.420331        -1.394057        -1.444186
 H        -0.888241        -0.604775        -2.047021
 H         0.902232        -2.345356         0.305041
 H        -0.700802         1.634887         1.044648
 H        -0.457536         2.047541        -0.641587
