19
Iteration:  1716
 C        -2.823531        -1.470453         1.459044
 C        -1.661870        -0.513315         1.092522
 C        -2.013137         0.430469         0.033120
 C        -1.756666        -0.841751        -1.030218
 C        -0.676817        -1.192104         0.140892
 O        -0.163515        -2.432733         0.479842
 C         0.293969        -0.041534         0.082857
 O         1.473567        -0.012820         0.384643
 C        -0.659270         1.134608        -0.160917
 H        -3.061009        -2.326531         0.860061
 H        -2.444732        -1.814627         2.470194
 H        -3.635712        -0.801876         1.621480
 H        -1.308285        -0.214772         2.146202
 H        -2.901775         1.042992        -0.016396
 H        -2.669945        -1.467565        -1.020611
 H        -1.393999        -0.587826        -2.080125
 H         0.835581        -2.271715         0.468458
 H        -0.514183         1.881647         0.607216
 H        -0.436235         1.728895        -1.154250
