19
Iteration:  2349charge 0 multiplicity 1
 C        -2.809667        -1.491541         1.546405
 C        -1.641172        -0.540601         1.119398
 C        -2.019431         0.434085        -0.039827
 C        -1.759702        -0.833390        -0.966991
 C        -0.669444        -1.160141         0.073144
 O        -0.274452        -2.475892         0.343697
 C         0.332767        -0.000965         0.058593
 O         1.474771         0.049378         0.442449
 C        -0.578006         1.128153        -0.149123
 H        -3.444121        -1.796803         0.785892
 H        -2.415985        -2.520076         2.136492
 H        -3.362499        -0.803286         2.273375
 H        -1.216071        -0.044634         2.010220
 H        -3.073310         0.593059         0.045384
 H        -2.615466        -1.462166        -0.771334
 H        -1.396866        -0.677943        -2.009957
 H         0.640386        -2.308601         0.707375
 H        -0.322589         1.723216         0.729529
 H        -0.401121         1.809971        -1.050810
