19
Iteration:  1627charge 0 multiplicity 1
 C        -3.089919        -1.492661         1.390522
 C        -1.845807        -0.611097         1.144659
 C        -1.982427         0.376636         0.059642
 C        -1.649584        -0.871758        -0.960991
 C        -0.667201        -1.186302         0.211932
 O        -0.043097        -2.344727         0.624519
 C         0.322513         0.006297         0.031210
 O         1.533117        -0.062804         0.061036
 C        -0.586160         1.243063        -0.002393
 H        -3.572156        -1.633646         0.433582
 H        -3.101776        -2.422806         1.931382
 H        -3.574276        -0.871599         2.065742
 H        -1.390619        -0.193319         2.121331
 H        -2.861558         0.956547        -0.266347
 H        -2.422448        -1.644729        -0.875111
 H        -1.402567        -0.654858        -2.037680
 H         0.945543        -2.187917         0.325936
 H        -0.213479         1.787340         0.885956
 H        -0.395415         1.927476        -0.908143
