19
Iteration:  4657
 C        -3.034509        -1.537797         1.496009
 C        -1.798840        -0.517709         1.178702
 C        -1.979156         0.422834        -0.161112
 C        -1.605645        -0.839127        -0.962471
 C        -0.659847        -1.139277         0.323560
 O        -0.062467        -2.435017         0.603645
 C         0.271244        -0.022259         0.075928
 O         1.487559        -0.033024         0.182934
 C        -0.625322         1.186646        -0.181926
 H        -3.082221        -2.160934         0.509542
 H        -2.800184        -2.349320         2.161319
 H        -3.854678        -0.990463         1.887123
 H        -1.585498         0.204416         1.982500
 H        -2.855744         1.058404        -0.273172
 H        -2.408455        -1.466693        -1.014869
 H        -1.088217        -0.574688        -1.864270
 H         0.933026        -2.383164         0.521195
 H        -0.598012         1.870477         0.598262
 H        -0.410658         1.752814        -1.172751
