19
Iteration:  1341charge 0 multiplicity 1
 C        -2.981059        -1.578354         1.540286
 C        -1.832504        -0.567130         1.206926
 C        -1.946018         0.460387        -0.088762
 C        -1.605648        -0.661069        -1.027498
 C        -0.677752        -1.165326         0.294963
 O        -0.011183        -2.383819         0.583913
 C         0.256137        -0.012157         0.121673
 O         1.432073        -0.216508         0.128183
 C        -0.651636         1.260339        -0.141562
 H        -3.326644        -2.108060         0.553232
 H        -2.683578        -2.426134         2.100408
 H        -3.891326        -1.228173         1.855867
 H        -1.488450        -0.155657         2.172955
 H        -2.857393         0.991219        -0.414268
 H        -2.258642        -1.377443        -1.458542
 H        -1.027520        -0.410159        -1.936565
 H         1.008155        -2.133361         0.525236
 H        -0.498743         2.070701         0.627948
 H        -0.583477         1.652597        -1.145596
