19
Iteration:  2251charge 0 multiplicity 1
 C        -2.956598        -1.395015         1.512706
 C        -1.678714        -0.562465         1.190975
 C        -1.958648         0.389916         0.031324
 C        -1.682271        -0.800133        -0.984771
 C        -0.654926        -1.208715         0.185535
 O        -0.052729        -2.381223         0.409448
 C         0.236876        -0.046133         0.087717
 O         1.433500        -0.099011         0.192164
 C        -0.686646         1.133765        -0.059954
 H        -3.255544        -2.080816         0.780200
 H        -2.593903        -2.137253         2.425374
 H        -3.781397        -0.609023         1.622624
 H        -1.192269        -0.085886         2.020387
 H        -2.895994         0.962663         0.090849
 H        -2.626236        -1.343373        -1.039750
 H        -1.226130        -0.565836        -1.975835
 H         0.898728        -2.159015         0.165162
 H        -0.534871         1.794301         0.823466
 H        -0.448992         1.880211        -0.963298
