19
Iteration:   700charge 0 multiplicity 1
 C        -2.784178        -1.547287         1.688788
 C        -1.722782        -0.529366         1.022104
 C        -1.997949         0.402224        -0.114972
 C        -1.594642        -0.779340        -1.174661
 C        -0.712202        -1.182635         0.112656
 O        -0.235901        -2.479672         0.545074
 C         0.263332         0.039445         0.128003
 O         1.459298        -0.076359         0.350403
 C        -0.660028         1.244592        -0.120029
 H        -3.334935        -2.155395         1.007430
 H        -2.193080        -2.081397         2.493380
 H        -3.402538        -0.922674         2.315024
 H        -1.195417        -0.187525         1.957223
 H        -2.953053         0.875757        -0.242154
 H        -2.436279        -1.477554        -1.284702
 H        -1.195495        -0.270961        -2.081471
 H         0.641360        -2.277639         0.321183
 H        -0.704716         1.798903         0.820305
 H        -0.439643         1.932090        -0.997340
