19
Iteration:   125charge 0 multiplicity 1
 C        -3.053153        -1.421239         1.705700
 C        -1.829330        -0.486240         1.220968
 C        -2.002417         0.421999        -0.030971
 C        -1.689210        -0.842808        -0.973468
 C        -0.596492        -1.143777         0.130709
 O         0.036418        -2.437392         0.171979
 C         0.283447        -0.062796         0.158024
 O         1.509073        -0.095894         0.369877
 C        -0.659602         1.165721        -0.173487
 H        -3.100252        -2.416810         1.225113
 H        -3.219773        -1.523633         2.816227
 H        -4.060224        -1.002972         1.397790
 H        -1.343305         0.084264         2.020287
 H        -2.915142         1.093627        -0.123008
 H        -2.467589        -1.713935        -1.154000
 H        -1.271629        -0.729142        -2.011411
 H         0.899098        -2.156662         0.547622
 H        -0.475938         2.012906         0.516673
 H        -0.340458         1.424806        -1.218708
