19
Iteration:  2619
 C        -2.903211        -1.355447         1.558067
 C        -1.651515        -0.458786         1.118585
 C        -1.978802         0.350983        -0.191481
 C        -1.707399        -1.021731        -0.979688
 C        -0.600597        -1.200398         0.178322
 O        -0.100666        -2.472682         0.325235
 C         0.270965        -0.061458         0.116658
 O         1.402918         0.060577         0.510956
 C        -0.672527         1.211212        -0.174703
 H        -2.764013        -2.453244         1.244258
 H        -2.808965        -1.294689         2.608795
 H        -3.858711        -0.914585         1.290779
 H        -1.335958         0.269207         1.888388
 H        -2.892624         0.901389        -0.331691
 H        -2.487094        -1.776366        -0.819168
 H        -1.510636        -0.809221        -2.044835
 H         0.832043        -2.334834         0.774937
 H        -0.728257         1.828626         0.774017
 H        -0.498538         1.716445        -1.134951
