19
Iteration:  4307charge 0 multiplicity 1
 C        -2.797324        -1.476576         1.629920
 C        -1.721106        -0.509466         1.143444
 C        -1.953382         0.423324        -0.180939
 C        -1.666164        -0.938372        -1.029242
 C        -0.703276        -1.184896         0.114706
 O        -0.197914        -2.410008         0.402125
 C         0.294046         0.049025         0.109254
 O         1.408169        -0.000587         0.591115
 C        -0.674891         1.175169        -0.318459
 H        -2.890361        -2.245300         0.766772
 H        -2.612794        -1.931706         2.580134
 H        -3.762878        -1.044157         1.827572
 H        -1.135134         0.090655         1.968170
 H        -2.798853         1.036393        -0.073371
 H        -2.317118        -1.935647        -1.007122
 H        -1.168385        -0.898368        -2.138651
 H         0.770023        -2.377860         0.747032
 H        -0.522811         1.962502         0.339708
 H        -0.404270         1.572432        -1.380869
