19
Iteration:  3400
 C        -3.054172        -1.389686         1.638889
 C        -1.799374        -0.507099         1.092826
 C        -2.005601         0.331244        -0.168590
 C        -1.568061        -0.909438        -1.029727
 C        -0.593936        -1.213836         0.285439
 O        -0.016259        -2.438817         0.386623
 C         0.244417        -0.021969         0.157101
 O         1.455714         0.048340         0.303751
 C        -0.669181         1.139133        -0.126390
 H        -3.600262        -1.821359         0.816552
 H        -2.902126        -1.965437         2.493406
 H        -3.620069        -0.597206         2.062704
 H        -1.376757         0.184153         1.892657
 H        -2.924776         0.715423        -0.530402
 H        -2.357460        -1.672201        -1.318056
 H        -1.043767        -0.733350        -1.975601
 H         0.805726        -2.261218         0.968602
 H        -0.395084         1.828492         0.648248
 H        -0.399225         1.541416        -1.159635
