19
Iteration:  2994charge 0 multiplicity 1
 C        -2.942839        -1.477689         1.391585
 C        -1.889039        -0.532036         1.152556
 C        -1.951065         0.304064        -0.151196
 C        -1.392041        -0.922373        -0.896260
 C        -0.621101        -1.087091         0.410932
 O        -0.224687        -2.473412         0.657032
 C         0.243402         0.097382         0.165462
 O         1.465788         0.020169        -0.010065
 C        -0.667152         1.208177        -0.125512
 H        -3.871350        -0.972251         1.179695
 H        -2.934546        -2.447836         0.676865
 H        -2.776289        -1.807549         2.471727
 H        -1.574671        -0.019911         2.102634
 H        -2.900285         0.857701        -0.417006
 H        -2.125559        -1.704051        -0.963003
 H        -0.811029        -0.824295        -1.826885
 H         0.664526        -2.471085         1.007499
 H        -0.737489         2.212347         0.374650
 H        -0.292446         1.460530        -1.186683
