19
Iteration:  3369charge 0 multiplicity 1
 C        -3.103452        -1.441624         1.458881
 C        -1.774145        -0.524897         1.228881
 C        -1.933916         0.318587        -0.140065
 C        -1.587532        -0.976276        -0.981679
 C        -0.653097        -1.199256         0.338395
 O        -0.014522        -2.364737         0.533522
 C         0.313229         0.077503         0.180240
 O         1.508069        -0.065849         0.164038
 C        -0.692505         1.261676        -0.145754
 H        -3.797812        -1.493122         0.469282
 H        -2.974448        -2.469221         1.735793
 H        -3.781032        -0.976003         2.189260
 H        -1.610410         0.149786         2.070294
 H        -2.901394         0.697083        -0.418001
 H        -2.455560        -1.618815        -1.096566
 H        -1.009102        -0.810889        -1.851696
 H         0.895864        -2.381103         0.226240
 H        -0.538968         2.062077         0.618068
 H        -0.672200         1.654558        -1.223009
