19
Iteration:  2466
 C        -3.074583        -1.442783         1.454340
 C        -1.839981        -0.560012         1.259380
 C        -1.945009         0.387878        -0.018796
 C        -1.485706        -0.887478        -0.945091
 C        -0.658051        -1.105996         0.295695
 O        -0.136495        -2.498989         0.492464
 C         0.339439         0.092183         0.165585
 O         1.537125        -0.022021         0.012194
 C        -0.718152         1.178216        -0.090712
 H        -3.881006        -1.075095         2.195469
 H        -3.714372        -1.561364         0.558777
 H        -2.773292        -2.442063         1.747351
 H        -1.399214        -0.293863         2.206634
 H        -2.829131         0.976524        -0.255988
 H        -2.112911        -1.789045        -1.048952
 H        -1.032582        -0.463365        -1.903980
 H         0.789386        -2.419561         0.334721
 H        -0.479747         1.866419         0.767104
 H        -0.525676         1.707822        -0.982243
