19
Iteration:  2300charge 0 multiplicity 1
 C        -2.885770        -1.438015         1.778413
 C        -1.848833        -0.559284         1.197702
 C        -2.007543         0.442408        -0.143163
 C        -1.647728        -0.818600        -0.993241
 C        -0.678746        -1.159392         0.189174
 O        -0.116559        -2.412669         0.162568
 C         0.254873        -0.040965         0.147242
 O         1.476339        -0.096576         0.336881
 C        -0.597957         1.166452        -0.078556
 H        -2.975253        -2.414568         1.104095
 H        -2.561371        -1.769823         2.664099
 H        -3.825587        -0.891877         1.775775
 H        -1.402899         0.080827         2.033485
 H        -2.859491         1.103711        -0.397593
 H        -2.159335        -1.791524        -1.104521
 H        -1.059785        -0.509086        -1.841242
 H         0.808365        -2.213691         0.242703
 H        -0.471306         2.053147         0.563396
 H        -0.450015         1.499581        -1.066567
