19
Iteration:  3512charge 0 multiplicity 1
 C        -2.852930        -1.337799         1.561803
 C        -1.740888        -0.521481         1.111238
 C        -2.022474         0.326482        -0.148456
 C        -1.661627        -0.872431        -1.042597
 C        -0.699113        -1.186072         0.179090
 O        -0.049067        -2.453799         0.461511
 C         0.264936        -0.049153         0.102091
 O         1.438388         0.001698         0.478173
 C        -0.695659         1.174764        -0.230258
 H        -3.099738        -2.186527         0.779013
 H        -2.576890        -1.700200         2.542562
 H        -3.812543        -0.838108         1.799688
 H        -1.592273         0.188802         1.966677
 H        -2.974112         0.896157        -0.271056
 H        -2.351134        -1.717168        -1.044444
 H        -1.110636        -0.868398        -2.032302
 H         0.892107        -2.255147         0.620130
 H        -0.320250         1.858625         0.626140
 H        -0.527141         1.556230        -1.272249
