19
Iteration:   370
 C        -2.705174        -1.591566         1.626155
 C        -1.789812        -0.456540         1.150678
 C        -2.014915         0.383360        -0.143172
 C        -1.612608        -0.767650        -1.045228
 C        -0.721758        -1.143603         0.227220
 O        -0.274066        -2.371004         0.362661
 C         0.312188         0.017952         0.093846
 O         1.490563        -0.138639         0.471471
 C        -0.640901         1.185065        -0.237687
 H        -3.171074        -2.335870         0.916671
 H        -2.289232        -2.276515         2.412042
 H        -3.541788        -1.120957         2.175706
 H        -1.643687         0.179035         2.009597
 H        -2.798701         1.055996        -0.455238
 H        -2.269706        -1.569842        -1.321381
 H        -0.977898        -0.489243        -1.925974
 H         0.597562        -2.374216         0.728224
 H        -0.653972         2.063611         0.426177
 H        -0.778444         1.610922        -1.231361
