19
Iteration:  1532charge 0 multiplicity 1
 C        -2.708991        -1.464534         1.645083
 C        -1.851945        -0.463660         1.040804
 C        -1.968492         0.417434        -0.204984
 C        -1.609703        -0.835605        -1.066269
 C        -0.698224        -1.185934         0.079648
 O        -0.279584        -2.531295         0.404930
 C         0.321413        -0.033848         0.188219
 O         1.520761         0.085067         0.380702
 C        -0.675571         1.124740        -0.032297
 H        -3.002900        -2.233573         1.016829
 H        -2.379995        -1.984387         2.596963
 H        -3.671490        -1.013714         2.156154
 H        -1.451198         0.112742         1.860607
 H        -2.924050         0.941480        -0.390582
 H        -2.425021        -1.583361        -0.961106
 H        -1.392013        -0.715109        -2.165990
 H         0.628009        -2.461466         0.725986
 H        -0.697264         1.744492         0.835362
 H        -0.381920         1.744586        -0.912446
