19
Iteration:  4482charge 0 multiplicity 1
 C        -2.919916        -1.484463         1.642386
 C        -1.805371        -0.548930         1.175567
 C        -1.907872         0.362497        -0.217717
 C        -1.528740        -0.885449        -1.092471
 C        -0.702042        -1.143853         0.246653
 O        -0.195136        -2.386786         0.544388
 C         0.278206         0.025314         0.130852
 O         1.498150         0.008396         0.221202
 C        -0.681630         1.139249        -0.105339
 H        -3.428496        -2.267673         0.822044
 H        -2.611251        -2.146123         2.476473
 H        -3.765485        -0.831350         1.955771
 H        -1.544512         0.147066         1.958313
 H        -2.737127         0.983706        -0.496927
 H        -2.336013        -1.590773        -1.136581
 H        -1.104733        -0.774183        -2.136309
 H         0.757757        -2.578155         0.266446
 H        -0.607066         1.733887         0.802739
 H        -0.398589         1.921287        -0.977887
