19
Iteration:  2407
 C        -2.965624        -1.511471         1.635053
 C        -1.827655        -0.560691         1.167619
 C        -1.975193         0.390014        -0.090961
 C        -1.560807        -0.789741        -1.045322
 C        -0.706407        -1.105087         0.219994
 O        -0.047871        -2.362957         0.403326
 C         0.287979         0.053429         0.126261
 O         1.463785        -0.208336         0.222721
 C        -0.674145         1.167924        -0.067862
 H        -3.871752        -0.898909         1.309049
 H        -2.879553        -2.535101         1.309863
 H        -2.938255        -1.418353         2.743483
 H        -1.459865        -0.075603         2.030514
 H        -2.927834         0.927220        -0.335795
 H        -2.394493        -1.447467        -1.317435
 H        -1.108697        -0.567298        -1.992303
 H         0.970372        -2.092134         0.271698
 H        -0.512872         1.845705         0.814139
 H        -0.603827         1.776603        -1.048511
