19
Iteration:  4138
 C        -3.014499        -1.592657         1.451480
 C        -1.918141        -0.550459         1.082909
 C        -1.950286         0.451010        -0.105639
 C        -1.456389        -0.787415        -1.008027
 C        -0.666862        -1.152910         0.298801
 O        -0.097135        -2.357220         0.704938
 C         0.293839        -0.002509         0.154137
 O         1.482166        -0.156600        -0.005272
 C        -0.686614         1.278506        -0.041647
 H        -3.166405        -2.249070         0.667669
 H        -2.415599        -2.132879         2.223534
 H        -4.024451        -1.361421         1.735382
 H        -1.773507        -0.030098         2.097447
 H        -2.976030         0.912547        -0.348745
 H        -2.253183        -1.481585        -1.205941
 H        -0.916024        -0.565206        -1.936034
 H         0.911526        -2.203820         0.803817
 H        -0.407206         1.948662         0.875774
 H        -0.488576         1.774886        -0.952982
