19
Iteration:  2350charge 0 multiplicity 1
 C        -2.817089        -1.496206         1.546225
 C        -1.646419        -0.535513         1.124357
 C        -2.005990         0.437695        -0.046158
 C        -1.762556        -0.828764        -0.962400
 C        -0.670700        -1.158824         0.072777
 O        -0.272479        -2.475058         0.341968
 C         0.332833        -0.008961         0.061498
 O         1.476243         0.048032         0.439882
 C        -0.583461         1.127796        -0.148188
 H        -3.453467        -1.788598         0.758349
 H        -2.371803        -2.494275         2.108083
 H        -3.343724        -0.822699         2.322411
 H        -1.248475        -0.047403         1.990193
 H        -3.071316         0.593318         0.056903
 H        -2.597880        -1.493274        -0.778637
 H        -1.409280        -0.695408        -1.999082
 H         0.679343        -2.293679         0.728714
 H        -0.344141         1.721240         0.734842
 H        -0.397611         1.822293        -1.074985
