19
Iteration:  3297charge 0 multiplicity 1
 C        -2.915712        -1.597204         1.443438
 C        -1.903447        -0.541429         1.106523
 C        -1.902747         0.350371        -0.148113
 C        -1.432876        -0.853503        -0.929774
 C        -0.668829        -1.104517         0.346795
 O        -0.226892        -2.296422         0.685052
 C         0.299629         0.064565         0.082257
 O         1.501781        -0.115831         0.017512
 C        -0.702898         1.215454        -0.061116
 H        -3.672411        -1.725496         0.813202
 H        -2.412932        -2.607076         1.521850
 H        -3.506589        -1.262262         2.325820
 H        -1.825330         0.155513         2.027714
 H        -2.838599         0.994016        -0.246962
 H        -2.309838        -1.486415        -0.959678
 H        -0.670788        -0.886495        -1.790053
 H         0.715181        -2.461610         0.427434
 H        -0.745431         1.989083         0.731063
 H        -0.544793         1.599301        -1.031767
