19
Iteration:  3843
 C        -3.051639        -1.509189         1.386483
 C        -1.783529        -0.529613         1.161018
 C        -1.957838         0.428461        -0.189309
 C        -1.607645        -0.906561        -0.960435
 C        -0.664350        -1.184440         0.281451
 O        -0.095426        -2.447446         0.677518
 C         0.304164         0.002038         0.140159
 O         1.496008         0.042094         0.093805
 C        -0.611323         1.190475        -0.111935
 H        -3.347272        -1.943687         0.489630
 H        -2.852220        -2.198761         2.176305
 H        -3.815919        -0.940816         1.901714
 H        -1.442447        -0.068590         2.035209
 H        -2.912718         1.044638        -0.099562
 H        -2.505167        -1.676027        -1.005742
 H        -1.017920        -1.015230        -1.945251
 H         0.806249        -2.105120         0.762979
 H        -0.644583         1.789970         0.879145
 H        -0.343555         1.819870        -0.887416
