19
Iteration:  2659charge 0 multiplicity 1
 C        -2.869610        -1.533999         1.651012
 C        -1.857923        -0.550250         1.123284
 C        -1.976470         0.330190        -0.171849
 C        -1.671098        -0.736467        -1.118507
 C        -0.672523        -1.113562         0.306121
 O        -0.075827        -2.320737         0.489919
 C         0.266039         0.003615         0.143056
 O         1.426187        -0.102709         0.425209
 C        -0.591799         1.152762        -0.334508
 H        -3.212160        -2.330375         0.879991
 H        -2.481956        -2.061832         2.485313
 H        -3.806282        -1.111306         1.961724
 H        -1.431641        -0.079171         2.072896
 H        -2.975456         0.895947        -0.281140
 H        -2.130383        -1.736271        -1.113164
 H        -1.242823        -0.590145        -2.071439
 H         0.918280        -2.224259         0.649124
 H        -0.465097         2.144826         0.154472
 H        -0.436251         1.357740        -1.416695
