19
Iteration:  1534charge 0 multiplicity 1
 C        -2.725366        -1.463555         1.661812
 C        -1.849260        -0.450811         1.014590
 C        -1.971276         0.422088        -0.212538
 C        -1.620469        -0.841026        -1.065477
 C        -0.679538        -1.188357         0.083495
 O        -0.280239        -2.536948         0.404306
 C         0.317330        -0.029466         0.188388
 O         1.520136         0.083812         0.368879
 C        -0.670916         1.124839        -0.017751
 H        -3.009683        -2.235904         1.023194
 H        -2.386638        -1.962359         2.545570
 H        -3.620718        -1.067750         2.178252
 H        -1.481754         0.083723         1.854005
 H        -2.914076         0.939775        -0.446074
 H        -2.379830        -1.618626        -0.941665
 H        -1.382211        -0.653578        -2.109623
 H         0.679488        -2.439761         0.776538
 H        -0.734101         1.715052         0.916551
 H        -0.352883         1.720628        -0.864965
