19
Iteration:  4683
 C        -3.067589        -1.443786         1.457968
 C        -1.824879        -0.577791         1.194893
 C        -2.018476         0.320136        -0.062058
 C        -1.502699        -0.861241        -0.989458
 C        -0.643768        -1.114695         0.210393
 O        -0.020094        -2.322924         0.598963
 C         0.279390         0.029960         0.175368
 O         1.481291        -0.134553         0.092284
 C        -0.670565         1.176554        -0.078502
 H        -3.240452        -2.098644         0.697817
 H        -3.034340        -2.119014         2.347558
 H        -3.833084        -0.653996         1.633126
 H        -1.615273         0.070556         1.980384
 H        -2.992849         0.834075        -0.312316
 H        -2.318788        -1.640423        -1.057552
 H        -1.053998        -0.632270        -1.901552
 H         1.002370        -2.239809         0.436823
 H        -0.527464         2.193525         0.460237
 H        -0.513128         1.367237        -1.103654
