19
Iteration:   918charge 0 multiplicity 1
 C        -2.909909        -1.418836         1.687524
 C        -1.696811        -0.545679         1.182916
 C        -1.943466         0.404774        -0.165128
 C        -1.643680        -0.863066        -1.033472
 C        -0.713056        -1.236661         0.089509
 O        -0.064891        -2.414834         0.320143
 C         0.235320         0.010569         0.216306
 O         1.425625        -0.067629         0.413693
 C        -0.690119         1.221218        -0.178715
 H        -3.535080        -1.866424         0.977882
 H        -2.429893        -2.127860         2.381193
 H        -3.598410        -0.729568         2.231136
 H        -1.223256         0.078409         1.925163
 H        -2.896749         0.940713        -0.164042
 H        -2.315839        -1.648977        -1.193880
 H        -1.285322        -0.669456        -2.025971
 H         0.915220        -2.422399         0.304098
 H        -0.758822         1.971129         0.604541
 H        -0.439267         1.437716        -1.228490
