19
Iteration:  2385charge 0 multiplicity 1
 C        -2.880267        -1.528955         1.635244
 C        -1.797345        -0.494554         1.179781
 C        -1.998662         0.416240        -0.122453
 C        -1.597293        -0.763044        -0.968240
 C        -0.723787        -1.127408         0.210089
 O        -0.109180        -2.406177         0.295262
 C         0.264302        -0.039952         0.215296
 O         1.463866        -0.165463         0.290868
 C        -0.661256         1.255887        -0.158737
 H        -3.930234        -1.481313         1.100570
 H        -2.376792        -2.478348         1.485109
 H        -3.001006        -1.435727         2.752643
 H        -1.550082         0.107806         1.992835
 H        -3.017203         0.872250        -0.143771
 H        -2.272442        -1.613178        -1.162657
 H        -1.043864        -0.712431        -1.888828
 H         0.824631        -2.201657         0.446049
 H        -0.457345         2.114296         0.506900
 H        -0.258731         1.468617        -1.220993
