19
Iteration:   688
 C        -2.752458        -1.495830         1.682322
 C        -1.731915        -0.640342         1.126193
 C        -2.017264         0.446745        -0.171812
 C        -1.632123        -0.755947        -1.122817
 C        -0.702615        -1.142133         0.091990
 O        -0.200754        -2.455696         0.471922
 C         0.285990        -0.041211         0.122160
 O         1.484612        -0.072450         0.387811
 C        -0.724863         1.278181        -0.080287
 H        -3.393499        -2.023084         0.950734
 H        -2.405893        -2.345705         2.342654
 H        -3.461558        -0.837873         2.177852
 H        -1.295929         0.041697         1.898767
 H        -2.959116         0.989818        -0.271931
 H        -2.463629        -1.521459        -1.213088
 H        -1.139197        -0.755390        -2.114841
 H         0.780947        -2.534722         0.561567
 H        -0.521113         2.199451         0.457468
 H        -0.518538         1.556427        -1.174366
