19
Iteration:  3780charge 0 multiplicity 1
 C        -2.803619        -1.451144         1.654838
 C        -1.799096        -0.469699         1.040518
 C        -1.963422         0.335814        -0.281613
 C        -1.628514        -0.879911        -1.028145
 C        -0.697320        -1.200795         0.113574
 O        -0.165453        -2.455245         0.487512
 C         0.238389         0.060329         0.158325
 O         1.431578         0.000925         0.468882
 C        -0.615470         1.170865        -0.210757
 H        -3.474286        -2.162212         1.232970
 H        -2.164445        -2.268033         2.180560
 H        -3.306601        -0.947786         2.502906
 H        -1.533644         0.247642         1.904306
 H        -2.850375         1.007145        -0.425784
 H        -2.487747        -1.593165        -0.996604
 H        -1.051662        -0.861920        -1.880089
 H         0.799842        -2.456838         0.573584
 H        -0.810743         1.991661         0.559442
 H        -0.290229         1.641816        -1.175560
