19
Iteration:   151
 C        -2.925838        -1.349834         1.451629
 C        -1.636831        -0.577587         1.215512
 C        -1.887549         0.397459         0.010119
 C        -1.772045        -0.872073        -0.930438
 C        -0.648018        -1.198918         0.245007
 O        -0.097550        -2.502116         0.309886
 C         0.289072        -0.059606         0.064486
 O         1.435044         0.045214         0.339888
 C        -0.690057         1.185836        -0.131135
 H        -2.975811        -2.111190         0.680763
 H        -3.077568        -1.847950         2.376961
 H        -3.872248        -0.767549         1.281619
 H        -1.136664        -0.143242         2.095649
 H        -2.804788         0.981537        -0.069094
 H        -2.638999        -1.434104        -0.894618
 H        -1.511212        -0.793071        -1.979137
 H         0.795811        -2.377954         0.538583
 H        -0.488705         1.929394         0.695753
 H        -0.566180         1.682227        -1.084792
