19
Iteration:  4193
 C        -3.059475        -1.396250         1.404120
 C        -1.812080        -0.625001         1.116769
 C        -1.950687         0.392884        -0.140753
 C        -1.615910        -0.949911        -0.922126
 C        -0.575054        -1.178525         0.273259
 O        -0.051919        -2.447429         0.583475
 C         0.298082         0.010678         0.090025
 O         1.510887         0.041904         0.143157
 C        -0.705536         1.202607        -0.054957
 H        -3.625493        -1.573487         0.567346
 H        -3.045093        -2.372434         1.985405
 H        -3.590586        -0.709937         2.046765
 H        -1.669190        -0.245221         2.156319
 H        -2.931149         0.963272        -0.366351
 H        -2.390686        -1.633780        -1.130218
 H        -0.999445        -0.719259        -1.762107
 H         0.871100        -2.254910         0.834624
 H        -0.510429         1.891621         0.898321
 H        -0.533419         1.776479        -0.915620
