19
Iteration:  2530
 C        -2.858442        -1.485600         1.437850
 C        -1.791059        -0.522751         1.129543
 C        -2.046366         0.436894        -0.178604
 C        -1.696891        -0.858950        -0.995758
 C        -0.710921        -1.177661         0.201043
 O        -0.087560        -2.341209         0.586318
 C         0.289847         0.023621         0.092031
 O         1.509528        -0.182471         0.232933
 C        -0.652172         1.219620        -0.047354
 H        -2.459185        -1.968371         2.439243
 H        -3.800112        -1.104480         1.584315
 H        -2.918360        -2.306697         0.773647
 H        -1.372615        -0.093831         2.014723
 H        -2.920866         1.076924        -0.485705
 H        -2.380296        -1.661219        -0.732125
 H        -1.381386        -0.703850        -1.994695
 H         0.893775        -2.048042         0.626286
 H        -0.494941         1.738511         0.974355
 H        -0.462763         1.939610        -0.835421
