19
Iteration:  3992
 C        -2.808030        -1.454259         1.743312
 C        -1.824114        -0.480832         1.112532
 C        -2.036350         0.390948        -0.269220
 C        -1.623578        -0.877276        -1.067425
 C        -0.645203        -1.191937         0.130496
 O        -0.140483        -2.387832         0.413577
 C         0.303313         0.015399         0.141738
 O         1.477282        -0.072541         0.562735
 C        -0.709392         1.166748        -0.304179
 H        -3.604310        -1.943940         0.998419
 H        -2.326826        -2.359950         2.052314
 H        -3.471310        -0.901067         2.474047
 H        -1.372351        -0.020541         2.041512
 H        -2.923051         0.942935        -0.364508
 H        -2.248310        -1.763172        -1.195319
 H        -1.064074        -0.737547        -1.948649
 H         0.820963        -2.076231         0.509588
 H        -0.715057         1.931466         0.498572
 H        -0.502018         1.582744        -1.389172
