19
Iteration:  2868
 C        -2.861976        -1.351724         1.596318
 C        -1.718312        -0.514728         1.138732
 C        -1.969542         0.355728        -0.310448
 C        -1.686800        -1.057252        -0.984965
 C        -0.695218        -1.257303         0.184984
 O        -0.126545        -2.506293         0.395888
 C         0.338379         0.026236         0.133465
 O         1.449279         0.226903         0.566463
 C        -0.655680         1.121639        -0.309811
 H        -3.272226        -0.867570         2.598455
 H        -3.555198        -1.392793         0.821217
 H        -2.645818        -2.422764         1.741701
 H        -1.466434         0.168799         1.920422
 H        -2.922297         0.854297        -0.528235
 H        -2.614204        -1.596336        -0.867817
 H        -1.304729        -1.256432        -2.007403
 H         0.402474        -2.406400         1.233326
 H        -0.646427         1.864617         0.534626
 H        -0.280758         1.770132        -1.083422
