19
Iteration:  4681
 C        -3.051468        -1.439181         1.453923
 C        -1.830012        -0.583965         1.194195
 C        -2.011420         0.322707        -0.060255
 C        -1.515551        -0.859417        -1.003274
 C        -0.662748        -1.120501         0.219312
 O        -0.018106        -2.326196         0.599009
 C         0.284777         0.038974         0.185084
 O         1.490211        -0.134951         0.093844
 C        -0.673666         1.186722        -0.087726
 H        -3.288387        -2.160523         0.671927
 H        -3.002384        -2.077661         2.343200
 H        -3.799018        -0.681055         1.658805
 H        -1.684983         0.030412         2.048594
 H        -2.997544         0.811176        -0.309424
 H        -2.270745        -1.594072        -1.022272
 H        -1.038647        -0.621805        -1.846330
 H         0.961801        -2.268798         0.445421
 H        -0.512252         2.130127         0.426646
 H        -0.530934         1.378622        -1.173632
