19
Iteration:  1293
 C        -2.958598        -1.327320         1.539644
 C        -1.758145        -0.506041         1.178802
 C        -2.010518         0.333501        -0.130543
 C        -1.533013        -0.896140        -1.002051
 C        -0.670986        -1.212365         0.208352
 O        -0.059861        -2.515003         0.346282
 C         0.261755         0.013060         0.178000
 O         1.494425         0.000631         0.215122
 C        -0.700955         1.188090         0.036841
 H        -3.507881        -1.781267         0.784296
 H        -2.756124        -2.143082         2.304205
 H        -3.815835        -0.607347         1.815452
 H        -1.488821         0.183130         2.135199
 H        -2.993545         0.754374        -0.357374
 H        -2.493802        -1.509833        -1.106702
 H        -1.322505        -0.979634        -2.079549
 H         0.972895        -2.356853         0.299742
 H        -0.914733         1.733993         0.985014
 H        -0.314846         1.932447        -0.735201
