19
Iteration:  2393charge 0 multiplicity 1
 C        -2.913139        -1.473531         1.642412
 C        -1.818797        -0.532862         1.149794
 C        -1.984317         0.402564        -0.095761
 C        -1.559543        -0.774957        -0.999972
 C        -0.680646        -1.166607         0.256917
 O        -0.108324        -2.325359         0.310467
 C         0.242984        -0.053618         0.191726
 O         1.457381        -0.193676         0.270455
 C        -0.671810         1.232549        -0.162316
 H        -3.885810        -1.584500         1.321275
 H        -2.570980        -2.597870         1.357480
 H        -3.029673        -1.560275         2.750543
 H        -1.354935        -0.019930         2.039723
 H        -2.803295         1.087933        -0.214892
 H        -2.215448        -1.635530        -0.999106
 H        -0.955159        -0.428849        -1.868101
 H         0.800939        -2.160091         0.326700
 H        -0.712688         2.059784         0.529454
 H        -0.374404         1.653636        -1.195076
