19
Iteration:  1386charge 0 multiplicity 1
 C        -2.971092        -1.547711         1.514536
 C        -1.792003        -0.520488         1.154602
 C        -1.969090         0.384638        -0.152867
 C        -1.592576        -0.829049        -0.959688
 C        -0.677608        -1.190651         0.266625
 O        -0.243357        -2.497763         0.535810
 C         0.356456         0.047891         0.091036
 O         1.591523         0.024227         0.124012
 C        -0.649755         1.252117        -0.063776
 H        -3.598860        -2.054938         0.696918
 H        -2.603326        -2.381193         2.063214
 H        -3.818964        -1.133818         1.972316
 H        -1.444304        -0.049032         2.086629
 H        -2.876863         0.989089        -0.067743
 H        -2.495099        -1.467573        -1.106826
 H        -1.215271        -0.763690        -1.996142
 H         0.763977        -2.397553         0.635929
 H        -0.622390         1.852453         0.883679
 H        -0.243887         1.936743        -0.795499
