19
Iteration:  4923charge 0 multiplicity 1
 C        -2.975561        -1.507374         1.537224
 C        -1.824842        -0.466354         1.153652
 C        -1.953117         0.393919        -0.089855
 C        -1.563585        -0.841420        -1.023720
 C        -0.707052        -1.189388         0.291830
 O        -0.081364        -2.408915         0.547796
 C         0.307297         0.014323         0.104303
 O         1.513778        -0.073292         0.194010
 C        -0.702945         1.208627        -0.165818
 H        -3.254157        -2.174194         0.799353
 H        -2.677538        -2.140506         2.408200
 H        -4.017924        -1.123851         1.745451
 H        -1.542765        -0.008521         2.111829
 H        -2.999940         0.846572        -0.176053
 H        -2.155879        -1.725586        -1.270698
 H        -0.987256        -0.742843        -1.920111
 H         0.932495        -2.227634         0.543459
 H        -0.729714         2.130909         0.469715
 H        -0.580391         1.648052        -1.129406
