19
Iteration:   729charge 0 multiplicity 1
 C        -2.827906        -1.577494         1.618248
 C        -1.818179        -0.421342         1.122638
 C        -2.017085         0.444089        -0.153593
 C        -1.549156        -0.840044        -1.055798
 C        -0.707617        -1.161879         0.233110
 O        -0.216181        -2.444194         0.450466
 C         0.303455        -0.012583         0.152686
 O         1.509168        -0.036158         0.222968
 C        -0.647259         1.161940        -0.023084
 H        -3.336814        -2.181429         0.774503
 H        -2.381771        -2.228390         2.406566
 H        -3.670119        -0.944627         1.994659
 H        -1.384485         0.014808         2.027460
 H        -2.925694         0.965023        -0.533038
 H        -2.393456        -1.614563        -1.092704
 H        -1.245226        -0.711107        -2.087610
 H         0.673275        -2.115943         0.246889
 H        -0.619090         1.866728         0.883516
 H        -0.376117         1.636573        -0.985051
