19
Iteration:  4650charge 0 multiplicity 1
 C        -2.960952        -1.547086         1.489674
 C        -1.828346        -0.467355         1.214671
 C        -1.977474         0.414380        -0.159482
 C        -1.598150        -0.838877        -0.962785
 C        -0.645479        -1.165888         0.228669
 O        -0.089962        -2.428676         0.608840
 C         0.279076        -0.005813         0.055886
 O         1.471233        -0.012670         0.202798
 C        -0.616655         1.158452        -0.146798
 H        -3.331150        -1.932380         0.592496
 H        -2.718303        -2.328252         2.258688
 H        -3.940664        -1.075590         1.779419
 H        -1.644269         0.157571         2.063978
 H        -2.931899         0.961352        -0.433873
 H        -2.438069        -1.607043        -1.005361
 H        -1.148106        -0.751205        -1.945668
 H         0.845671        -2.385998         0.589149
 H        -0.363196         1.935677         0.697106
 H        -0.387149         1.628504        -1.076686
