19
Iteration:  4390charge 0 multiplicity 1
 C        -3.047655        -1.398139         1.414242
 C        -1.812205        -0.491972         1.181718
 C        -2.012082         0.341190        -0.117980
 C        -1.534197        -0.881081        -1.021636
 C        -0.648790        -1.212292         0.251139
 O         0.045315        -2.399903         0.632769
 C         0.255641         0.013788         0.174908
 O         1.479877        -0.111958         0.086300
 C        -0.731185         1.233462        -0.060273
 H        -3.650867        -1.588497         0.498000
 H        -2.773127        -2.410435         1.975293
 H        -3.905102        -0.817246         1.945270
 H        -1.568193        -0.026280         2.153485
 H        -3.068235         0.734068        -0.258073
 H        -2.312324        -1.599292        -1.120819
 H        -1.082183        -0.710040        -1.922175
 H         1.042103        -2.202407         0.469924
 H        -0.532453         1.870733         0.901624
 H        -0.316668         1.790403        -0.872717
