19
Iteration:  4222charge 0 multiplicity 1
 C        -2.982007        -1.357218         1.606671
 C        -1.875525        -0.505535         1.144534
 C        -1.972707         0.311435        -0.172468
 C        -1.571745        -0.938780        -1.035013
 C        -0.650093        -1.230863         0.190828
 O        -0.051710        -2.444653         0.423589
 C         0.286188        -0.000820         0.186813
 O         1.508641         0.049397         0.321062
 C        -0.692690         1.162740        -0.110869
 H        -3.637208        -1.723456         0.728214
 H        -2.683522        -2.365640         1.946677
 H        -3.621464        -0.708640         2.286500
 H        -1.495185         0.092560         2.002887
 H        -2.896569         0.794981        -0.442108
 H        -2.382397        -1.625525        -1.311773
 H        -0.957580        -0.644326        -1.886001
 H         0.832208        -2.161700         0.856064
 H        -0.603100         2.020587         0.516770
 H        -0.495401         1.465464        -1.194993
