19
Iteration:   878charge 0 multiplicity 1
 C        -2.878594        -1.556882         1.510329
 C        -1.714930        -0.526765         1.221858
 C        -1.970787         0.415383        -0.076686
 C        -1.670732        -0.840516        -0.963850
 C        -0.646765        -1.135048         0.166098
 O        -0.307678        -2.430858         0.446178
 C         0.336473        -0.017979         0.103795
 O         1.536728         0.067127         0.330284
 C        -0.647303         1.167164        -0.222956
 H        -3.167029        -2.184260         0.615319
 H        -2.342605        -2.444999         2.016675
 H        -3.689292        -1.169638         2.174100
 H        -1.198711        -0.340684         2.230107
 H        -2.967222         0.954036        -0.245868
 H        -2.594704        -1.557761        -1.000434
 H        -1.339532        -0.741774        -2.069508
 H         0.654028        -2.291537         0.811063
 H        -0.477098         1.952500         0.538815
 H        -0.369784         1.700654        -1.216098
