19
Iteration:  4689charge 0 multiplicity 1
 C        -3.105303        -1.432907         1.504343
 C        -1.815202        -0.552642         1.163673
 C        -2.021689         0.324291        -0.084623
 C        -1.513462        -0.879996        -0.951110
 C        -0.579621        -1.144506         0.246969
 O        -0.015918        -2.313495         0.584961
 C         0.262690         0.003856         0.136071
 O         1.464668        -0.122086         0.092204
 C        -0.674263         1.167391        -0.036891
 H        -3.258470        -2.059229         0.464733
 H        -3.071205        -2.110900         2.334640
 H        -3.979957        -0.782363         1.509566
 H        -1.282180         0.143321         1.994281
 H        -2.904364         0.901696        -0.286073
 H        -2.233317        -1.617368        -1.194617
 H        -1.080766        -0.673458        -2.082368
 H         0.905660        -2.090269         0.440950
 H        -0.656282         2.027840         0.527750
 H        -0.389230         1.514541        -1.136526
