19
Iteration:  3059charge 0 multiplicity 1
 C        -2.982881        -1.372726         1.439310
 C        -1.764264        -0.636621         1.180608
 C        -2.002662         0.326579        -0.147293
 C        -1.550602        -0.829647        -1.069044
 C        -0.656550        -1.249089         0.262194
 O         0.048203        -2.301369         0.755838
 C         0.229707         0.029947         0.135213
 O         1.415533        -0.155910         0.094764
 C        -0.732108         1.219789        -0.087668
 H        -3.666542        -0.864144         0.768271
 H        -2.848569        -2.544897         1.170085
 H        -3.497143        -1.371237         2.462691
 H        -1.259607        -0.219395         2.046939
 H        -2.903233         0.823559        -0.633369
 H        -2.342464        -1.494599        -1.312196
 H        -0.993961        -0.744219        -2.021651
 H         0.910034        -1.811061         0.925395
 H        -1.013354         2.058045         0.660782
 H        -0.424071         1.733469        -1.088549
