19
Iteration:  2329
 C        -2.831642        -1.429769         1.616814
 C        -1.638506        -0.582184         1.194930
 C        -1.908873         0.390031        -0.040754
 C        -1.734067        -0.787230        -1.040358
 C        -0.667174        -1.213082         0.083155
 O        -0.255739        -2.536253         0.313333
 C         0.305445         0.004663         0.095347
 O         1.455958         0.015850         0.431662
 C        -0.696773         1.220981        -0.128354
 H        -3.034259        -2.066329         0.772759
 H        -2.322497        -2.006557         2.467852
 H        -3.635486        -0.720276         1.969825
 H        -1.147739        -0.129087         2.013083
 H        -2.824568         1.078141        -0.034236
 H        -2.390252        -1.643363        -1.156627
 H        -1.266768        -0.462699        -1.983026
 H         0.651004        -2.524692         0.467053
 H        -0.687472         2.054730         0.573996
 H        -0.627079         1.615169        -1.239800
