19
Iteration:  1880
 C        -2.885312        -1.502707         1.392619
 C        -1.809410        -0.527831         1.247749
 C        -1.984510         0.415596         0.006077
 C        -1.646436        -0.823825        -1.026656
 C        -0.703806        -1.137324         0.265868
 O        -0.093283        -2.355638         0.521557
 C         0.273778        -0.005667         0.114733
 O         1.501728        -0.163351         0.174121
 C        -0.675408         1.209728        -0.097502
 H        -3.366504        -1.919517         0.562244
 H        -2.497408        -2.490529         1.884149
 H        -3.598117        -1.058161         2.125065
 H        -1.456367        -0.001430         2.116555
 H        -2.797647         1.016272        -0.350177
 H        -2.524425        -1.484876        -1.213174
 H        -0.939034        -0.648656        -1.861782
 H         0.841617        -2.189071         0.558906
 H        -0.522807         2.054322         0.521104
 H        -0.637263         1.601563        -1.164212
