19
Iteration:     5
 C        -2.870190        -1.459870         1.548615
 C        -1.812157        -0.564775         1.197337
 C        -2.002528         0.448112        -0.012057
 C        -1.646523        -0.760809        -0.989027
 C        -0.706028        -1.156078         0.221980
 O        -0.123230        -2.463538         0.328407
 C         0.285350        -0.006991         0.115358
 O         1.504842        -0.094638         0.231248
 C        -0.631761         1.186347        -0.083221
 H        -2.532826        -2.267648         2.203876
 H        -3.650460        -1.030795         2.210156
 H        -3.331295        -1.949443         0.708101
 H        -1.398654        -0.096988         2.092122
 H        -2.917251         0.998706        -0.143145
 H        -2.403598        -1.523199        -0.985365
 H        -1.196046        -0.556252        -1.956320
 H         0.841113        -2.236982         0.358024
 H        -0.625979         1.833563         0.765511
 H        -0.420285         1.640259        -1.060254
