19
Iteration:  4380
 C        -3.037739        -1.344628         1.428155
 C        -1.819273        -0.534117         1.130187
 C        -1.983114         0.350462        -0.089169
 C        -1.527105        -0.940246        -1.025152
 C        -0.692652        -1.212913         0.282783
 O         0.005230        -2.363436         0.571158
 C         0.277773        -0.010522         0.122225
 O         1.488719        -0.071483         0.132062
 C        -0.714984         1.181308        -0.034857
 H        -3.514536        -1.732737         0.494283
 H        -2.852420        -2.306342         2.064790
 H        -3.649014        -0.700546         2.106705
 H        -1.331398        -0.091908         1.984044
 H        -2.962101         0.861925        -0.272090
 H        -2.316186        -1.650403        -1.232135
 H        -0.956042        -0.783779        -1.852082
 H         0.994587        -2.093319         0.727681
 H        -0.794329         1.793733         0.947130
 H        -0.687422         1.900692        -0.852222
