19
Iteration:   689charge 0 multiplicity 1
 C        -2.751163        -1.499832         1.680686
 C        -1.730098        -0.641976         1.123643
 C        -2.018724         0.447707        -0.170348
 C        -1.631016        -0.759947        -1.134756
 C        -0.710876        -1.131945         0.091440
 O        -0.199527        -2.462078         0.480935
 C         0.289176        -0.045287         0.121468
 O         1.481692        -0.071989         0.385720
 C        -0.722877         1.283968        -0.077293
 H        -3.370134        -2.025667         0.984828
 H        -2.416251        -2.328014         2.350797
 H        -3.429707        -0.832348         2.180597
 H        -1.303651         0.028627         1.887602
 H        -2.953825         0.980086        -0.268752
 H        -2.444851        -1.504562        -1.189347
 H        -1.123561        -0.720192        -2.127287
 H         0.746771        -2.526731         0.547503
 H        -0.528414         2.170305         0.446386
 H        -0.523097         1.583224        -1.153556
