19
Iteration:  3430charge 0 multiplicity 1
 C        -2.861474        -1.389772         1.655891
 C        -1.706197        -0.544659         1.012995
 C        -2.031089         0.358841        -0.202665
 C        -1.647450        -0.948564        -1.005075
 C        -0.629070        -1.190406         0.142261
 O        -0.162525        -2.483417         0.394945
 C         0.296018         0.055240         0.138919
 O         1.460623         0.020106         0.510162
 C        -0.704160         1.201623        -0.200209
 H        -3.067591        -2.335218         1.249249
 H        -2.583650        -1.512670         2.793733
 H        -3.799912        -0.735445         1.626994
 H        -1.210345         0.054728         1.838074
 H        -2.988606         0.827908        -0.453506
 H        -2.451034        -1.761826        -1.089288
 H        -1.152286        -0.814611        -2.018999
 H         0.713400        -2.327353         0.804153
 H        -0.530413         1.955187         0.553762
 H        -0.435735         1.666258        -1.150874
