19
Iteration:  2305charge 0 multiplicity 1
 C        -2.866294        -1.451166         1.744172
 C        -1.825072        -0.561150         1.179714
 C        -2.069355         0.407148        -0.104136
 C        -1.608927        -0.790785        -0.979240
 C        -0.676694        -1.196605         0.196377
 O        -0.144681        -2.445404         0.177520
 C         0.256603        -0.042576         0.159840
 O         1.469542        -0.073710         0.354219
 C        -0.616600         1.213323        -0.119330
 H        -2.906503        -2.211771         1.052250
 H        -2.485623        -1.784927         2.851301
 H        -3.729424        -0.750294         1.743560
 H        -1.329027         0.038316         1.929441
 H        -2.837936         1.132866        -0.368975
 H        -2.321550        -1.626297        -1.143881
 H        -1.059400        -0.489637        -1.920108
 H         0.899115        -2.375968         0.189064
 H        -0.353819         2.036964         0.571706
 H        -0.342126         1.505867        -1.202909
