19
Iteration:  2097charge 0 multiplicity 1
 C        -2.931055        -1.343886         1.504820
 C        -1.694964        -0.546285         1.217708
 C        -1.948852         0.309914        -0.029813
 C        -1.730152        -0.924135        -0.911742
 C        -0.603706        -1.192543         0.241875
 O        -0.134343        -2.472766         0.218039
 C         0.331053         0.073903         0.050509
 O         1.505817        -0.008783         0.338772
 C        -0.725039         1.224068        -0.099958
 H        -3.586707        -1.430285         0.703896
 H        -2.631834        -2.476971         1.739660
 H        -3.458321        -1.023568         2.378826
 H        -1.266951         0.046685         2.028529
 H        -2.897994         0.796004         0.053455
 H        -2.634093        -1.539861        -0.940720
 H        -1.334966        -0.756689        -1.924384
 H         0.359316        -2.660604         0.981144
 H        -0.606876         2.039020         0.653686
 H        -0.382590         1.612850        -1.131373
