19
Iteration:   634charge 0 multiplicity 1
 C        -3.050376        -1.348469         1.576081
 C        -1.763985        -0.542584         1.247104
 C        -1.924308         0.330597        -0.054673
 C        -1.707703        -0.842532        -0.941440
 C        -0.625428        -1.196318         0.111622
 O         0.025457        -2.447859         0.240788
 C         0.274482         0.014733         0.209934
 O         1.466868        -0.051323         0.386473
 C        -0.662983         1.175909        -0.220644
 H        -3.722862        -1.541638         0.744165
 H        -2.691638        -2.199501         2.206377
 H        -3.591954        -0.719390         2.274654
 H        -1.343488        -0.039360         2.155136
 H        -2.870253         0.868643        -0.218907
 H        -2.419726        -1.753788        -0.766780
 H        -1.599605        -0.772887        -2.037119
 H         0.915444        -2.201510         0.459972
 H        -0.674222         1.969165         0.457289
 H        -0.483206         1.392293        -1.309173
