19
Iteration:  4352charge 0 multiplicity 1
 C        -3.062941        -1.416813         1.607074
 C        -1.855630        -0.520147         1.130603
 C        -2.012115         0.366407        -0.151461
 C        -1.551451        -0.929406        -1.045338
 C        -0.596160        -1.189252         0.209811
 O        -0.069155        -2.488474         0.446111
 C         0.289412        -0.013903         0.205924
 O         1.524166         0.046778         0.276616
 C        -0.640403         1.208492        -0.145082
 H        -3.539920        -1.916778         0.728495
 H        -2.806286        -1.973360         2.460733
 H        -3.806768        -0.739573         2.064148
 H        -1.258450         0.044779         1.923485
 H        -2.983857         0.743394        -0.396086
 H        -2.444022        -1.659796        -1.117550
 H        -1.115388        -0.848264        -2.165754
 H         0.873602        -2.219097         0.759994
 H        -0.694990         1.858331         0.679676
 H        -0.482664         1.824229        -1.099211
