19
Iteration:  2770charge 0 multiplicity 1
 C        -3.036537        -1.452281         1.342160
 C        -1.842017        -0.476960         1.174090
 C        -1.985795         0.290339        -0.120665
 C        -1.557073        -0.967572        -0.969351
 C        -0.588939        -1.138992         0.353934
 O        -0.013098        -2.329728         0.696447
 C         0.261716         0.071710         0.145815
 O         1.456217        -0.109410         0.086313
 C        -0.679339         1.196191        -0.112853
 H        -3.947210        -0.846235         0.956211
 H        -2.957461        -2.264887         0.720713
 H        -3.229725        -1.681351         2.363279
 H        -1.588126         0.119703         2.019208
 H        -2.946479         0.741751        -0.378694
 H        -2.341894        -1.673961        -1.108549
 H        -1.010214        -1.000791        -1.867886
 H         0.977918        -2.178733         0.493211
 H        -0.452920         1.897967         0.711908
 H        -0.589428         1.756522        -1.043468
