19
Iteration:  4085charge 0 multiplicity 1
 C        -2.978583        -1.497534         1.525219
 C        -1.793604        -0.542160         1.189943
 C        -1.929074         0.398213        -0.167425
 C        -1.581388        -0.857323        -1.001721
 C        -0.682497        -1.191915         0.289566
 O        -0.156717        -2.550639         0.522749
 C         0.308535         0.062954         0.123732
 O         1.510836         0.065774         0.260219
 C        -0.661128         1.216471        -0.167433
 H        -3.195375        -2.224518         0.803851
 H        -2.666520        -2.087836         2.424613
 H        -3.838709        -0.877848         1.593754
 H        -1.629388         0.143840         2.037431
 H        -2.868954         1.070448        -0.348220
 H        -2.375026        -1.607599        -1.050721
 H        -1.152076        -0.665940        -2.072478
 H         0.813051        -2.539866         0.194223
 H        -0.602068         1.962749         0.609190
 H        -0.471432         1.632705        -1.075800
