19
Iteration:  3141charge 0 multiplicity 1
 C        -2.773954        -1.414521         1.657102
 C        -1.612208        -0.477260         1.150597
 C        -2.005471         0.268747        -0.163354
 C        -1.582757        -0.846851        -1.060039
 C        -0.688872        -1.230597         0.146798
 O        -0.207978        -2.459291         0.432580
 C         0.293585        -0.042977         0.010083
 O         1.358468         0.098107         0.561236
 C        -0.703508         1.143967        -0.301305
 H        -3.255893        -1.862616         0.737548
 H        -2.591055        -2.204491         2.297604
 H        -3.511556        -0.747607         2.122982
 H        -1.106989         0.146733         1.971711
 H        -3.009646         0.623260        -0.250667
 H        -2.504017        -1.447678        -1.334247
 H        -1.008482        -0.581141        -1.943108
 H         0.416162        -2.416742         1.170049
 H        -0.623105         1.938570         0.432551
 H        -0.473760         1.637208        -1.240962
