19
Iteration:  4930charge 0 multiplicity 1
 C        -2.991899        -1.519992         1.519417
 C        -1.871224        -0.488926         1.147445
 C        -1.962996         0.352434        -0.091533
 C        -1.569621        -0.858669        -1.031347
 C        -0.679513        -1.170426         0.264752
 O        -0.073108        -2.406932         0.591011
 C         0.285949         0.052538         0.115838
 O         1.513531        -0.097388         0.165355
 C        -0.672843         1.252868        -0.126887
 H        -3.203318        -2.344249         0.703264
 H        -2.520427        -2.013027         2.419969
 H        -3.896509        -1.061395         1.953733
 H        -1.578794        -0.022506         2.072717
 H        -2.914670         0.947129        -0.231440
 H        -2.312955        -1.592930        -1.193757
 H        -0.986884        -0.500769        -2.068913
 H         0.896034        -2.263245         0.567189
 H        -0.645922         2.124866         0.544988
 H        -0.472203         1.470246        -1.298800
