19
Iteration:  3352charge 0 multiplicity 1
 C        -3.050707        -1.481098         1.355446
 C        -1.849539        -0.616243         1.151493
 C        -2.001809         0.384324        -0.106607
 C        -1.563363        -0.896286        -0.892218
 C        -0.643555        -1.116866         0.302158
 O        -0.039877        -2.333319         0.705936
 C         0.282394         0.027338         0.029089
 O         1.478950        -0.073881         0.121020
 C        -0.617775         1.214847        -0.148862
 H        -3.687576        -1.399726         0.543496
 H        -2.758497        -2.556155         1.592778
 H        -3.544710        -1.133330         2.281184
 H        -1.381969        -0.288649         2.115877
 H        -2.954899         0.981950        -0.226435
 H        -2.261869        -1.735859        -0.863237
 H        -1.188873        -0.820947        -1.964011
 H         0.869615        -2.219710         0.330764
 H        -0.643062         1.820644         0.773650
 H        -0.274410         1.791315        -0.958382
