19
Iteration:  3948
 C        -2.884603        -1.514992         1.493253
 C        -1.731672        -0.527370         1.120307
 C        -1.971826         0.424924        -0.140704
 C        -1.624958        -0.975668        -1.025503
 C        -0.634681        -1.157724         0.268768
 O        -0.244043        -2.420751         0.555377
 C         0.310297         0.008232         0.102197
 O         1.520342         0.070549         0.293671
 C        -0.668439         1.178285        -0.157595
 H        -3.417720        -2.211059         0.714817
 H        -2.564381        -2.293882         2.185104
 H        -3.789352        -0.945826         1.835200
 H        -1.327653         0.163498         1.914092
 H        -2.801718         1.011962        -0.410911
 H        -2.484418        -1.618683        -0.961353
 H        -1.272709        -0.931218        -2.031190
 H         0.739269        -2.368841         0.814936
 H        -0.700925         1.889010         0.679080
 H        -0.464516         1.797011        -1.109962
