19
Iteration:  2827
 C        -2.903788        -1.485396         1.652064
 C        -1.813713        -0.501369         1.108928
 C        -2.002784         0.312240        -0.288970
 C        -1.502835        -0.856665        -1.092450
 C        -0.756335        -1.143506         0.307781
 O        -0.166527        -2.412190         0.579073
 C         0.293324         0.038920         0.237255
 O         1.508730         0.007266         0.372944
 C        -0.701284         1.162364        -0.343520
 H        -3.607116        -1.010118         2.337511
 H        -3.464434        -1.991965         0.825707
 H        -2.396913        -2.381692         2.114280
 H        -1.260059        -0.155396         1.984993
 H        -2.871914         0.821097        -0.595612
 H        -2.204406        -1.648093        -1.306176
 H        -0.822566        -0.627860        -1.875025
 H         0.810605        -2.328766         0.422849
 H        -0.623655         2.029576         0.386992
 H        -0.526633         1.570632        -1.351214
