19
Iteration:  1601charge 0 multiplicity 1
 C        -3.091551        -1.435816         1.350322
 C        -1.774539        -0.593063         1.178203
 C        -1.955335         0.399529         0.026547
 C        -1.722313        -0.759302        -0.933414
 C        -0.672097        -1.222405         0.375525
 O         0.048603        -2.401035         0.542420
 C         0.298240        -0.038404         0.139797
 O         1.526308        -0.057449         0.115890
 C        -0.668265         1.167715        -0.138973
 H        -3.414927        -1.664991         0.308313
 H        -2.906648        -2.397770         1.763141
 H        -3.818092        -0.916107         2.027240
 H        -1.348081        -0.194788         2.040806
 H        -2.786976         1.095110        -0.095549
 H        -2.463877        -1.540481        -1.014961
 H        -1.350060        -0.551900        -1.899904
 H         0.885951        -2.232915        -0.015400
 H        -0.467558         2.001535         0.615503
 H        -0.625974         1.629215        -1.090806
