19
Iteration:   662
 C        -2.842758        -1.433472         1.543708
 C        -1.829844        -0.459182         1.257940
 C        -1.975254         0.392352        -0.068880
 C        -1.703988        -0.899942        -0.964586
 C        -0.751969        -1.105675         0.248323
 O        -0.051396        -2.471567         0.226377
 C         0.279345        -0.065226         0.111554
 O         1.462143        -0.017222         0.424152
 C        -0.590132         1.160259        -0.236563
 H        -3.591083        -1.910748         0.799631
 H        -2.396482        -2.264800         2.086383
 H        -3.567042        -0.874584         2.231438
 H        -1.539528         0.205873         2.090704
 H        -2.885065         1.031661        -0.146364
 H        -2.374062        -1.791769        -0.951379
 H        -1.367813        -0.834376        -2.017060
 H         0.821555        -2.357821         0.534144
 H        -0.361334         1.987503         0.600358
 H        -0.470313         1.672624        -1.196762
