19
Iteration:  4649
 C        -2.948326        -1.543287         1.490351
 C        -1.837586        -0.459796         1.216167
 C        -1.976166         0.411041        -0.155280
 C        -1.599233        -0.842650        -0.966776
 C        -0.643000        -1.174232         0.218044
 O        -0.099507        -2.424966         0.608058
 C         0.280436        -0.002273         0.056623
 O         1.472352        -0.010198         0.205510
 C        -0.617677         1.157147        -0.137163
 H        -3.381269        -1.921413         0.588077
 H        -2.694647        -2.301354         2.257627
 H        -3.919516        -1.093094         1.761776
 H        -1.630794         0.113053         2.073031
 H        -2.934468         0.939096        -0.454247
 H        -2.395456        -1.595178        -1.021744
 H        -1.186786        -0.797172        -1.916650
 H         0.865110        -2.361388         0.595074
 H        -0.345074         1.914147         0.679527
 H        -0.377074         1.630012        -1.099248
