19
Iteration:   357
 C        -2.767827        -1.601919         1.735610
 C        -1.841914        -0.500259         1.106787
 C        -2.058597         0.370410        -0.210844
 C        -1.606301        -0.804649        -1.074344
 C        -0.651744        -1.051028         0.114173
 O        -0.203394        -2.382688         0.362342
 C         0.294987         0.015459         0.179108
 O         1.457497        -0.165053         0.407347
 C        -0.608177         1.239929        -0.168650
 H        -3.169738        -2.200970         0.910732
 H        -2.217192        -2.103855         2.518737
 H        -3.655081        -1.031863         2.163846
 H        -1.372652         0.104275         1.904503
 H        -2.997004         0.819937        -0.347477
 H        -2.400868        -1.486747        -1.200005
 H        -1.127090        -0.519270        -2.124029
 H         0.360876        -2.339948         1.195041
 H        -0.535413         1.974656         0.683485
 H        -0.216167         1.643775        -1.066940
