19
Iteration:  1755
 C        -2.935070        -1.444180         1.602160
 C        -1.819331        -0.526135         1.201931
 C        -1.944464         0.446076         0.004154
 C        -1.705176        -0.882417        -0.911419
 C        -0.701804        -1.180121         0.164288
 O        -0.003159        -2.374631         0.187952
 C         0.295908        -0.015191         0.158433
 O         1.458892        -0.110270         0.497176
 C        -0.623738         1.171582        -0.357574
 H        -3.426626        -2.294065         0.967620
 H        -2.727337        -1.820458         2.570502
 H        -3.860244        -0.829916         1.759554
 H        -1.396728        -0.075690         2.043673
 H        -2.905638         1.019992        -0.042640
 H        -2.466031        -1.629779        -1.035143
 H        -1.273857        -0.639634        -1.857187
 H         0.947486        -2.197552         0.556692
 H        -0.337910         2.079710         0.227373
 H        -0.771065         1.421607        -1.356793
