19
Iteration:  1261charge 0 multiplicity 1
 C        -2.998309        -1.443000         1.539036
 C        -1.718524        -0.634971         1.214833
 C        -1.976808         0.348722         0.040264
 C        -1.622054        -0.815164        -1.003458
 C        -0.643882        -1.178716         0.216209
 O        -0.185281        -2.450250         0.282334
 C         0.327710         0.020891         0.111023
 O         1.513850         0.129646         0.357498
 C        -0.614662         1.065262        -0.234357
 H        -3.526628        -1.905139         0.748701
 H        -2.954356        -2.139058         2.423300
 H        -3.711666        -0.691473         1.905673
 H        -1.449765        -0.261454         2.260002
 H        -2.909562         0.898860        -0.087469
 H        -2.388764        -1.558004        -0.968806
 H        -1.089490        -0.472212        -1.863160
 H         0.593932        -2.435331         0.816759
 H        -0.513234         2.000916         0.351054
 H        -0.479958         1.450921        -1.290507
