19
Iteration:   736charge 0 multiplicity 1
 C        -2.884918        -1.525998         1.556085
 C        -1.855776        -0.479369         1.115244
 C        -1.980765         0.391439        -0.122115
 C        -1.586393        -0.850990        -0.958561
 C        -0.710885        -1.168392         0.250248
 O        -0.184852        -2.439621         0.418485
 C         0.303914         0.051732         0.234941
 O         1.532237        -0.058338         0.177933
 C        -0.641900         1.215254        -0.102836
 H        -3.259697        -2.272338         0.892584
 H        -2.421175        -2.193905         2.228160
 H        -3.786540        -1.097713         2.013154
 H        -1.366519         0.029225         1.949924
 H        -2.882066         1.017538        -0.245882
 H        -2.312907        -1.627602        -1.044943
 H        -1.271951        -0.729111        -2.021717
 H         0.773737        -2.417734         0.384891
 H        -0.603204         1.937847         0.668330
 H        -0.284733         1.831908        -0.905772
