19
Iteration:   405
 C        -2.856172        -1.478611         1.491188
 C        -1.699078        -0.587185         1.123549
 C        -1.891893         0.390167        -0.141712
 C        -1.794576        -0.849613        -0.976783
 C        -0.659403        -1.199895         0.159998
 O        -0.178112        -2.497644         0.466541
 C         0.277939         0.014246         0.135226
 O         1.476411         0.075021         0.424640
 C        -0.634237         1.184652        -0.132464
 H        -3.449589        -1.816957         0.612432
 H        -2.397552        -2.232755         2.195474
 H        -3.427993        -0.763849         2.025810
 H        -1.445880        -0.017393         1.999248
 H        -2.677184         1.213530        -0.272861
 H        -2.663169        -1.591107        -0.967956
 H        -1.538325        -0.672614        -1.948834
 H         0.631565        -2.460356         0.024561
 H        -0.459967         2.005225         0.519638
 H        -0.391122         1.524125        -1.205961
