19
Iteration:  1099charge 0 multiplicity 1
 C        -3.046584        -1.457982         1.544377
 C        -1.794192        -0.700094         1.232646
 C        -1.958666         0.434856        -0.077310
 C        -1.597075        -0.800647        -1.030632
 C        -0.766280        -1.233974         0.225182
 O        -0.018579        -2.387487         0.449257
 C         0.274679         0.015684         0.151657
 O         1.491544        -0.020317         0.133355
 C        -0.614999         1.143478        -0.061131
 H        -3.607963        -1.619871         0.580560
 H        -2.675487        -2.120519         2.314067
 H        -3.748176        -0.791656         2.008338
 H        -1.337336        -0.219654         2.094018
 H        -2.869717         0.943213        -0.255971
 H        -2.429760        -1.481300        -1.277769
 H        -0.905395        -0.493460        -1.896771
 H         0.921865        -2.015503         0.657199
 H        -0.463511         1.884861         0.738101
 H        -0.548540         1.729712        -0.964301
