19
Iteration:   933
 C        -2.894137        -1.341739         1.782387
 C        -1.792132        -0.594796         1.090453
 C        -2.032113         0.294155        -0.143164
 C        -1.618023        -0.854969        -1.098042
 C        -0.666796        -1.138090         0.203298
 O        -0.013767        -2.379355         0.246251
 C         0.245669         0.019831         0.130404
 O         1.430295        -0.132430         0.430890
 C        -0.652935         1.154017        -0.151793
 H        -3.606465        -1.832859         0.996833
 H        -2.693552        -2.121030         2.570502
 H        -3.607055        -0.673299         2.323622
 H        -1.371253        -0.121017         2.021597
 H        -2.975812         0.880153        -0.367721
 H        -2.560038        -1.519589        -1.102127
 H        -1.012522        -0.549573        -1.980151
 H         0.919901        -2.013082         0.518204
 H        -0.578451         1.957046         0.609205
 H        -0.386915         1.826044        -1.052418
