19
Iteration:  2578
 C        -3.025955        -1.460390         1.681517
 C        -1.791484        -0.537594         1.138510
 C        -1.970537         0.405473        -0.135190
 C        -1.560034        -0.864631        -0.999599
 C        -0.591898        -1.222452         0.204185
 O        -0.106180        -2.469877         0.335835
 C         0.278604         0.017446         0.158900
 O         1.466514         0.056862         0.384046
 C        -0.678112         1.137595        -0.262712
 H        -2.860581        -2.458105         1.925833
 H        -3.397378        -0.818775         2.617360
 H        -3.917949        -1.340982         0.968862
 H        -1.411959        -0.032872         2.007980
 H        -2.921648         0.885234        -0.158548
 H        -2.349874        -1.610228        -1.077890
 H        -0.899884        -0.578211        -1.904895
 H         0.786202        -2.421477         0.632251
 H        -0.528176         1.944340         0.450197
 H        -0.325594         1.446311        -1.269206
