19
Iteration:  2182
 C        -2.836372        -1.523584         1.552109
 C        -1.791235        -0.467405         1.157069
 C        -1.931131         0.414015        -0.098298
 C        -1.565104        -0.840787        -1.010443
 C        -0.695449        -1.165764         0.242278
 O        -0.202640        -2.400556         0.482452
 C         0.265150        -0.016039         0.168632
 O         1.479576        -0.096820         0.029660
 C        -0.715397         1.238453         0.022736
 H        -3.676708        -1.398853         0.789784
 H        -2.351132        -2.502625         1.300311
 H        -3.254884        -1.419106         2.516469
 H        -1.406416         0.043154         2.031991
 H        -2.833471         1.002853        -0.175083
 H        -2.393757        -1.569472        -1.139983
 H        -0.971522        -0.776685        -1.933472
 H         0.661903        -2.600392         0.795925
 H        -0.631455         1.678238         1.076064
 H        -0.478262         1.949623        -0.732854
