19
Iteration:  1870
 C        -2.924882        -1.568704         1.377124
 C        -1.750027        -0.450427         1.236426
 C        -1.946603         0.411205        -0.070558
 C        -1.642451        -0.828256        -0.853941
 C        -0.727802        -1.143068         0.304714
 O        -0.124370        -2.363990         0.470140
 C         0.269252         0.007971         0.111051
 O         1.464065        -0.121728         0.210609
 C        -0.623556         1.206177        -0.176700
 H        -3.295144        -1.816257         0.430657
 H        -2.321110        -2.427560         1.869029
 H        -3.864820        -1.431148         1.987870
 H        -1.331735        -0.084735         2.196246
 H        -2.929169         0.887099        -0.100733
 H        -2.492584        -1.522688        -1.054440
 H        -1.235604        -0.707438        -1.906787
 H         0.772571        -2.134558         0.318685
 H        -0.388272         1.906234         0.600748
 H        -0.334090         1.600312        -1.226249
