19
Iteration:  2337charge 0 multiplicity 1
 C        -2.761157        -1.431052         1.583733
 C        -1.633497        -0.598298         1.142195
 C        -2.025004         0.360000        -0.009629
 C        -1.732022        -0.822629        -1.004387
 C        -0.664944        -1.204622         0.083637
 O        -0.275637        -2.492152         0.338332
 C         0.311933        -0.001123         0.043588
 O         1.470788         0.043793         0.453341
 C        -0.636744         1.226195        -0.126947
 H        -3.215733        -1.877110         0.746024
 H        -2.650869        -2.289744         2.447912
 H        -3.579008        -0.784678         1.981076
 H        -1.044987        -0.185866         2.007753
 H        -2.730161         1.147893        -0.131744
 H        -2.554101        -1.540985        -1.160430
 H        -1.467190        -0.597953        -2.074495
 H         0.600222        -2.593292         0.590757
 H        -0.454886         1.981946         0.648813
 H        -0.467284         1.684226        -1.128386
