19
Iteration:   103
 C        -2.947893        -1.405024         1.782168
 C        -1.842651        -0.619343         1.123656
 C        -1.942112         0.323803        -0.183949
 C        -1.603329        -0.825033        -0.986888
 C        -0.765942        -1.160119         0.168166
 O        -0.028187        -2.364472         0.173116
 C         0.282749         0.066160         0.227426
 O         1.485280        -0.191991         0.377237
 C        -0.638614         1.233889        -0.110913
 H        -3.016455        -2.505294         1.713192
 H        -2.878041        -1.066051         2.856848
 H        -4.018239        -1.128513         1.645713
 H        -1.335068        -0.000506         1.865711
 H        -2.915572         0.824121        -0.429137
 H        -2.517835        -1.518035        -1.210246
 H        -1.126887        -0.816809        -2.000895
 H         0.795931        -1.911343         0.086127
 H        -0.660049         2.049972         0.636737
 H        -0.279920         1.709730        -1.070136
