19
Iteration:   415
 C        -2.945175        -1.378746         1.530682
 C        -1.728022        -0.617005         1.092784
 C        -1.945856         0.379743        -0.086684
 C        -1.749335        -0.858072        -1.030326
 C        -0.681244        -1.195471         0.170967
 O        -0.145874        -2.453794         0.455271
 C         0.374881         0.013878         0.080315
 O         1.529791         0.084558         0.423026
 C        -0.641719         1.138634        -0.140231
 H        -3.543980        -1.936663         0.766018
 H        -2.681107        -2.299551         2.117565
 H        -3.614161        -0.826284         2.157546
 H        -1.164515        -0.301723         1.957075
 H        -2.944089         0.898263        -0.061373
 H        -2.668629        -1.525479        -0.915988
 H        -1.452009        -0.755639        -2.054410
 H         0.706872        -2.551494         0.111683
 H        -0.655832         1.812816         0.689754
 H        -0.457145         1.716544        -1.087337
