19
Iteration:  1021charge 0 multiplicity 1
 C        -2.886573        -1.590630         1.480248
 C        -1.785781        -0.564131         1.142277
 C        -1.974450         0.480027        -0.050884
 C        -1.639123        -0.743912        -0.948596
 C        -0.739528        -1.221114         0.251180
 O        -0.205719        -2.486371         0.498957
 C         0.341044        -0.033639         0.121985
 O         1.553197         0.047627         0.185489
 C        -0.651810         1.207987        -0.148600
 H        -3.049599        -2.215725         0.655593
 H        -2.628524        -2.271423         2.283796
 H        -3.627794        -0.977549         1.839473
 H        -1.305397        -0.114199         2.019310
 H        -2.932363         0.973843         0.037736
 H        -2.494475        -1.430427        -1.232976
 H        -1.085408        -0.508785        -1.867590
 H         0.617945        -2.461721         0.984903
 H        -0.660037         2.095796         0.445977
 H        -0.495168         1.629116        -1.150564
