19
Iteration:  2257charge 0 multiplicity 1
 C        -2.970293        -1.424921         1.530769
 C        -1.664298        -0.491863         1.165684
 C        -1.984223         0.408195        -0.010899
 C        -1.681244        -0.801159        -0.985845
 C        -0.681237        -1.183718         0.171818
 O        -0.000911        -2.416442         0.382491
 C         0.237032        -0.012515         0.058999
 O         1.430223        -0.146839         0.215851
 C        -0.702813         1.153713        -0.020443
 H        -3.365904        -2.268722         0.855383
 H        -2.690474        -1.807661         2.457286
 H        -3.702081        -0.700133         1.778726
 H        -1.185299        -0.096458         2.118740
 H        -2.859309         1.049669         0.068314
 H        -2.556516        -1.465335        -0.965765
 H        -1.274032        -0.653236        -1.985432
 H         1.001590        -2.157428         0.259363
 H        -0.620070         1.766440         0.892170
 H        -0.386772         1.680384        -0.840807
