19
Iteration:  4095
 C        -2.934143        -1.500779         1.455986
 C        -1.850850        -0.431326         1.094891
 C        -1.958521         0.401795        -0.082567
 C        -1.550906        -0.904412        -0.996230
 C        -0.605098        -1.169122         0.254873
 O        -0.194506        -2.486574         0.566548
 C         0.296244         0.010145         0.082252
 O         1.501254         0.031607         0.200278
 C        -0.670625         1.167325        -0.066101
 H        -3.070005        -2.223570         0.743037
 H        -2.672291        -1.959609         2.433690
 H        -3.911046        -1.155050         1.709309
 H        -1.435010        -0.057310         2.058954
 H        -2.809879         1.157030        -0.314681
 H        -2.402350        -1.590491        -1.053587
 H        -1.003099        -0.859385        -1.996861
 H         0.827857        -2.401847         0.476584
 H        -0.747204         1.869226         0.786134
 H        -0.533928         1.732257        -0.889282
