19
Iteration:    71charge 0 multiplicity 1
 C        -2.806621        -1.381406         1.652343
 C        -1.749314        -0.451288         1.153774
 C        -1.966907         0.318325        -0.092743
 C        -1.662308        -0.728896        -1.082437
 C        -0.650964        -1.222580         0.020180
 O        -0.145422        -2.549159         0.370515
 C         0.269524        -0.032809         0.055638
 O         1.448637        -0.046221         0.385245
 C        -0.722443         1.181801        -0.032805
 H        -2.442226        -2.432953         1.617946
 H        -2.896206        -1.330479         2.778588
 H        -3.757415        -1.234784         1.063957
 H        -1.260632         0.074495         1.993543
 H        -2.899551         0.899214        -0.362188
 H        -2.633300        -1.343519        -1.044972
 H        -1.173283        -0.377005        -1.977947
 H         0.689217        -2.230032         0.903619
 H        -0.684202         1.680255         0.947131
 H        -0.462938         1.729807        -0.966670
