19
Iteration:  3746
 C        -2.870725        -1.350456         1.625514
 C        -1.742167        -0.462420         1.156901
 C        -1.977081         0.290158        -0.090986
 C        -1.692117        -0.935372        -1.003400
 C        -0.611942        -1.189470         0.038318
 O        -0.055212        -2.389385         0.363296
 C         0.285131         0.008266         0.037494
 O         1.360408        -0.067537         0.614133
 C        -0.669668         1.136097        -0.280196
 H        -3.269889        -1.890610         0.808554
 H        -2.525572        -1.941689         2.519360
 H        -3.726590        -0.757565         2.026374
 H        -1.267222         0.229575         1.924300
 H        -2.913585         0.859488        -0.325863
 H        -2.554298        -1.676325        -1.109791
 H        -1.230843        -0.873813        -1.914262
 H         0.842495        -2.027451         0.733201
 H        -0.601174         2.104367         0.350434
 H        -0.429976         1.431749        -1.310229
