19
Iteration:   507charge 0 multiplicity 1
 C        -2.978610        -1.525301         1.420926
 C        -1.742360        -0.602755         1.153604
 C        -2.060138         0.400457        -0.020109
 C        -1.710463        -0.805982        -1.004500
 C        -0.646093        -1.151413         0.229914
 O        -0.122970        -2.394615         0.638240
 C         0.313293        -0.004872         0.063949
 O         1.520770        -0.051812         0.126113
 C        -0.583644         1.202482        -0.058699
 H        -3.113787        -2.278692         0.681917
 H        -2.820750        -2.058990         2.359506
 H        -3.729538        -0.677515         1.494989
 H        -1.314960        -0.208999         2.105291
 H        -2.899845         1.093218        -0.086602
 H        -2.357218        -1.543021        -1.265249
 H        -1.228125        -0.438148        -1.921634
 H         0.748473        -2.458804         0.334187
 H        -0.579521         1.958322         0.797302
 H        -0.308824         1.715318        -1.007389
