19
Iteration:  4028charge 0 multiplicity 1
 C        -2.902986        -1.317695         1.605889
 C        -1.682699        -0.476818         1.124798
 C        -2.006081         0.429673        -0.217518
 C        -1.681306        -0.987426        -0.962061
 C        -0.738792        -1.243606         0.083738
 O         0.056963        -2.467236         0.324029
 C         0.238619        -0.019369         0.151099
 O         1.394817        -0.003842         0.565550
 C        -0.702967         1.151043        -0.253905
 H        -3.518235        -1.728808         0.842718
 H        -2.451287        -2.094802         2.194707
 H        -3.446378        -0.786931         2.376028
 H        -1.127709         0.031226         1.948041
 H        -2.982500         0.954894        -0.439928
 H        -2.576343        -1.695686        -0.942591
 H        -1.307089        -0.883370        -1.993324
 H         0.771895        -2.122430         0.900815
 H        -0.734039         1.855179         0.613319
 H        -0.276633         1.688453        -0.979949
