19
Iteration:  2817
 C        -2.951546        -1.535742         1.612995
 C        -1.896572        -0.526658         1.086451
 C        -1.922620         0.382820        -0.247883
 C        -1.532470        -0.881299        -1.067605
 C        -0.665663        -1.201412         0.267200
 O        -0.120539        -2.344461         0.655847
 C         0.249117         0.034888         0.131607
 O         1.448995        -0.039531         0.321058
 C        -0.615069         1.175440        -0.254119
 H        -3.677600        -1.061071         2.223561
 H        -3.463146        -2.176942         0.811763
 H        -2.310760        -2.098174         2.362053
 H        -1.527614         0.110598         1.995302
 H        -2.839413         0.891705        -0.359756
 H        -2.181162        -1.698655        -1.398587
 H        -1.100766        -0.565857        -2.010691
 H         0.867749        -2.164214         0.429034
 H        -0.824633         2.082220         0.375341
 H        -0.318218         1.561549        -1.253885
