19
Iteration:  3673charge 0 multiplicity 1
 C        -2.921600        -1.410289         1.543810
 C        -1.767369        -0.512779         1.115393
 C        -1.972373         0.327090        -0.212510
 C        -1.551425        -0.997737        -0.986582
 C        -0.631057        -1.198413         0.251584
 O        -0.163484        -2.458968         0.461063
 C         0.303055         0.038990         0.117864
 O         1.505590         0.001360         0.263678
 C        -0.732313         1.237692        -0.040353
 H        -3.406545        -1.976510         0.757821
 H        -2.660490        -1.813746         2.562728
 H        -3.833255        -0.832746         1.789202
 H        -1.276724         0.082711         1.848244
 H        -2.926850         0.871574        -0.388928
 H        -2.482093        -1.484867        -1.325637
 H        -1.108609        -0.693074        -1.979362
 H         0.654415        -2.339236         1.050614
 H        -0.707453         1.947072         0.729055
 H        -0.580336         1.853379        -0.971765
