19
Iteration:  2111charge 0 multiplicity 1
 C        -2.942053        -1.419376         1.465386
 C        -1.718122        -0.505143         1.232560
 C        -1.995328         0.464371         0.042948
 C        -1.657177        -0.900767        -0.874670
 C        -0.665785        -1.175830         0.155338
 O        -0.076455        -2.510039         0.257834
 C         0.299570        -0.002206         0.195740
 O         1.519566        -0.060306         0.280494
 C        -0.701728         1.259020        -0.188745
 H        -3.702755        -1.302894         0.675916
 H        -2.656711        -2.503996         1.559245
 H        -3.440884        -1.046747         2.411394
 H        -1.327584        -0.241806         2.303384
 H        -2.942749         0.971423        -0.234142
 H        -2.343997        -1.718231        -0.632291
 H        -1.546247        -0.849810        -1.990048
 H         0.778367        -2.412210         0.837444
 H        -0.682575         2.053600         0.498815
 H        -0.784631         1.648330        -1.250854
