19
Iteration:  4884charge 0 multiplicity 1
 C        -2.984657        -1.343331         1.588892
 C        -1.778340        -0.537550         1.102230
 C        -1.997580         0.385926        -0.094427
 C        -1.633877        -1.001507        -0.968099
 C        -0.651881        -1.231369         0.144448
 O        -0.048907        -2.477887         0.404934
 C         0.315385        -0.007511         0.194912
 O         1.518320         0.048609         0.339562
 C        -0.722392         1.224356        -0.173417
 H        -3.244051        -2.041640         0.651484
 H        -2.742168        -1.969551         2.422397
 H        -3.819875        -0.707778         1.865136
 H        -1.335870         0.125768         1.885692
 H        -2.831278         0.981108        -0.155303
 H        -2.630404        -1.669631        -0.980017
 H        -1.215916        -0.987958        -2.057120
 H         0.858295        -2.283074         0.700904
 H        -0.628049         1.979672         0.608182
 H        -0.611430         1.684816        -1.246509
