19
Iteration:   889charge 0 multiplicity 1
 C        -2.803851        -1.541443         1.491163
 C        -1.700965        -0.508416         1.178944
 C        -1.958077         0.409341        -0.110432
 C        -1.749213        -0.828646        -0.948082
 C        -0.674347        -1.169567         0.209743
 O        -0.229027        -2.463525         0.416774
 C         0.313739        -0.009387         0.065572
 O         1.491280         0.067787         0.393161
 C        -0.621338         1.125418        -0.223175
 H        -3.484904        -1.935425         0.668825
 H        -2.469941        -2.323618         2.254638
 H        -3.637984        -1.056599         2.094450
 H        -1.517855         0.136768         2.118756
 H        -2.856405         1.103493        -0.001170
 H        -2.478162        -1.750226        -0.928618
 H        -1.269236        -0.464569        -1.911796
 H         0.809033        -2.579219         0.494071
 H        -0.559980         1.837942         0.624082
 H        -0.536722         1.750388        -1.198421
