19
Iteration:  2167
 C        -2.853285        -1.505886         1.535929
 C        -1.757991        -0.569031         1.078203
 C        -2.031773         0.414321        -0.101247
 C        -1.576970        -0.769110        -1.008844
 C        -0.665703        -1.139480         0.204009
 O        -0.146630        -2.455310         0.543697
 C         0.247997         0.036016         0.063641
 O         1.474310        -0.175759         0.100949
 C        -0.647586         1.273827         0.074915
 H        -3.926951        -1.549084         1.053412
 H        -2.623164        -2.534347         1.541973
 H        -2.910887        -1.252471         2.634544
 H        -1.427947        -0.006980         2.068588
 H        -3.026023         0.874667        -0.382807
 H        -2.445753        -1.452172        -1.053354
 H        -1.277607        -0.431195        -2.012362
 H         0.817647        -2.016604         0.715407
 H        -0.727127         1.866224         0.958341
 H        -0.405427         1.818193        -0.864371
