19
Iteration:   825
 C        -2.959914        -1.477394         1.609296
 C        -1.854606        -0.509687         1.148164
 C        -1.972520         0.334659        -0.167826
 C        -1.515802        -0.884670        -1.010535
 C        -0.671034        -1.133371         0.263141
 O        -0.123844        -2.398960         0.446753
 C         0.288801         0.008085         0.110507
 O         1.481768        -0.083514         0.125854
 C        -0.657175         1.205501         0.064535
 H        -3.508614        -1.939949         0.719165
 H        -2.508841        -2.266227         2.207572
 H        -3.652518        -0.740763         2.036395
 H        -1.568519         0.115206         2.009866
 H        -2.877490         0.998555        -0.332425
 H        -2.312506        -1.606592        -1.436262
 H        -0.981918        -0.720817        -1.998866
 H         0.838882        -1.972708         0.396527
 H        -0.645066         1.727311         1.027889
 H        -0.538225         1.717338        -0.860787
