19
Iteration:  1363charge 0 multiplicity 1
 C        -2.818127        -1.520417         1.327270
 C        -1.811748        -0.493258         1.170463
 C        -1.989716         0.411342         0.000071
 C        -1.636690        -0.852715        -0.912152
 C        -0.674064        -1.121072         0.262562
 O        -0.179506        -2.326406         0.576099
 C         0.294276        -0.016718         0.156207
 O         1.494336        -0.114035         0.110296
 C        -0.649195         1.164130        -0.088855
 H        -3.384373        -2.046895         0.468381
 H        -2.527341        -2.336639         1.937956
 H        -3.685371        -1.104764         1.682761
 H        -1.608763        -0.212574         2.222825
 H        -2.911061         1.029447        -0.103134
 H        -2.387340        -1.608945        -1.117866
 H        -1.266223        -0.649023        -1.947545
 H         0.781770        -2.259044         0.427731
 H        -0.253719         1.889815         0.672154
 H        -0.507410         1.607102        -1.068315
