19
Iteration:  1604charge 0 multiplicity 1
 C        -3.112648        -1.417541         1.327708
 C        -1.773453        -0.603220         1.183362
 C        -1.941200         0.409157         0.019053
 C        -1.746874        -0.783548        -0.904355
 C        -0.665107        -1.217289         0.338147
 O         0.061843        -2.372995         0.552375
 C         0.305648        -0.056139         0.124931
 O         1.518053        -0.047716         0.111304
 C        -0.650487         1.163710        -0.116533
 H        -3.423349        -1.735733         0.298149
 H        -2.943945        -2.357702         1.762550
 H        -3.815023        -1.099736         1.992617
 H        -1.305002        -0.198646         2.123045
 H        -2.735678         1.165130        -0.038276
 H        -2.539957        -1.514095        -0.958706
 H        -1.327424        -0.583753        -1.900927
 H         0.854279        -2.386810         0.065778
 H        -0.515106         1.983018         0.651762
 H        -0.644905         1.631208        -1.136663
