19
Iteration:   538
 C        -2.830909        -1.618870         1.388122
 C        -1.779626        -0.543383         1.191596
 C        -2.046794         0.465885        -0.024446
 C        -1.611769        -0.773358        -0.902493
 C        -0.697017        -1.143696         0.303531
 O        -0.264118        -2.481786         0.601486
 C         0.320522        -0.037121         0.084012
 O         1.530594        -0.023805         0.122446
 C        -0.612019         1.270714        -0.184135
 H        -2.985235        -2.336851         0.626568
 H        -2.610883        -2.084710         2.358186
 H        -3.787504        -1.166117         1.622099
 H        -1.413938        -0.123439         2.115997
 H        -2.877789         1.141167        -0.209270
 H        -2.383985        -1.410943        -1.218789
 H        -1.037348        -0.470940        -1.745819
 H         0.747855        -2.459009         0.361690
 H        -0.529918         2.016684         0.576790
 H        -0.433036         1.654335        -1.200785
