19
Iteration:  4181charge 0 multiplicity 1
 C        -3.070319        -1.441020         1.319693
 C        -1.834318        -0.552781         1.141148
 C        -1.995690         0.307063        -0.056731
 C        -1.534724        -0.895458        -0.937102
 C        -0.681488        -1.191680         0.296509
 O        -0.053173        -2.417620         0.630047
 C         0.332073         0.069620         0.144292
 O         1.552596        -0.034415         0.071891
 C        -0.680780         1.242691        -0.035102
 H        -3.610375        -1.709875         0.463560
 H        -2.802430        -2.336509         1.960804
 H        -3.790965        -0.813966         1.851317
 H        -1.372672        -0.056978         2.016838
 H        -3.013371         0.773006        -0.251907
 H        -2.308904        -1.616610        -0.915815
 H        -1.203016        -0.833671        -1.933902
 H         0.882065        -2.331324         0.486034
 H        -0.790967         2.103980         0.757995
 H        -0.524622         1.706026        -0.995972
