19
Iteration:  1171
 C        -2.862331        -1.478081         1.754552
 C        -1.859944        -0.614255         1.112176
 C        -2.023509         0.467734        -0.128271
 C        -1.558783        -0.740034        -1.093278
 C        -0.722197        -1.180958         0.118021
 O        -0.080993        -2.471390         0.376990
 C         0.267456        -0.028859         0.107284
 O         1.440208        -0.055285         0.395631
 C        -0.666527         1.181234        -0.150747
 H        -3.488206        -1.869029         1.092056
 H        -2.302498        -2.096690         2.432848
 H        -3.578059        -0.835365         2.281012
 H        -1.215515        -0.232468         1.927349
 H        -2.903401         1.022262        -0.490601
 H        -2.292662        -1.578452        -1.162176
 H        -1.056050        -0.498968        -1.988111
 H         0.834014        -2.274163         0.604495
 H        -0.451909         1.976922         0.558480
 H        -0.325032         1.640371        -1.115582
