19
Iteration:   502
 C        -2.975499        -1.499783         1.465256
 C        -1.806962        -0.589015         1.125602
 C        -2.040493         0.432333        -0.039366
 C        -1.702425        -0.819739        -0.970429
 C        -0.666786        -1.184675         0.244937
 O        -0.099124        -2.365764         0.594913
 C         0.338343        -0.027990         0.077623
 O         1.560553        -0.061357         0.127499
 C        -0.617260         1.196167        -0.065205
 H        -3.231922        -2.222763         0.641726
 H        -2.820274        -2.037389         2.410494
 H        -3.697692        -0.715716         1.458292
 H        -1.463341        -0.304125         2.125824
 H        -3.042521         0.950231        -0.182174
 H        -2.404869        -1.715115        -1.304813
 H        -1.193393        -0.402426        -1.850015
 H         0.891335        -2.420329         0.284379
 H        -0.537533         1.802025         0.811420
 H        -0.362390         1.925212        -0.872610
