19
Iteration:  3790
 C        -2.809806        -1.510147         1.695407
 C        -1.851920        -0.454180         1.073472
 C        -1.971366         0.374661        -0.252322
 C        -1.521841        -0.937012        -1.075909
 C        -0.667117        -1.169702         0.187312
 O        -0.237572        -2.445207         0.505188
 C         0.283841         0.013106         0.157990
 O         1.453108         0.015367         0.426117
 C        -0.659737         1.207635        -0.197108
 H        -3.488718        -1.873462         0.968484
 H        -2.101747        -2.225994         2.137132
 H        -3.398610        -1.010023         2.466274
 H        -1.400582         0.084332         1.927824
 H        -2.922817         0.857199        -0.618056
 H        -2.378674        -1.663094        -1.203363
 H        -1.209753        -0.781821        -2.050261
 H         0.712271        -2.329997         0.256548
 H        -0.499237         2.097999         0.512262
 H        -0.526301         1.544308        -1.216160
