19
Iteration:  3697charge 0 multiplicity 1
 C        -3.036436        -1.357792         1.608963
 C        -1.816202        -0.469578         1.172541
 C        -1.987961         0.309951        -0.123761
 C        -1.643332        -0.951732        -0.991255
 C        -0.572559        -1.186403         0.191522
 O        -0.079381        -2.461134         0.319449
 C         0.298020        -0.034255         0.182412
 O         1.501937         0.082397         0.401056
 C        -0.634074         1.106247        -0.234479
 H        -3.399975        -2.122284         0.895906
 H        -2.687806        -1.642276         2.556021
 H        -3.977319        -0.859204         1.807894
 H        -1.306063         0.060400         1.903235
 H        -2.800044         1.013279        -0.236544
 H        -2.281705        -1.810442        -0.979237
 H        -1.351869        -0.759087        -2.130388
 H         0.764621        -2.251270         0.724980
 H        -0.571182         1.823722         0.542643
 H        -0.570101         1.721474        -1.144721
