19
Iteration:  3269
 C        -2.962573        -1.439203         1.504349
 C        -1.802853        -0.526778         1.140602
 C        -1.982833         0.372999        -0.221589
 C        -1.577627        -0.841786        -0.976705
 C        -0.634573        -1.220317         0.327734
 O        -0.092615        -2.436803         0.621971
 C         0.303051        -0.028544         0.202442
 O         1.505165         0.045101         0.110358
 C        -0.712019         1.192923        -0.154175
 H        -3.657128        -1.836069         0.581435
 H        -2.631252        -2.390341         1.934944
 H        -3.754367        -0.995327         2.092231
 H        -1.690474         0.100543         1.999453
 H        -2.884257         0.932644        -0.113423
 H        -2.360601        -1.613401        -1.018763
 H        -1.026323        -0.845150        -1.896434
 H         0.723824        -2.658114         0.184618
 H        -0.729952         1.737779         0.795079
 H        -0.287562         1.841049        -1.006210
