19
Iteration:  3114charge 0 multiplicity 1
 C        -2.934938        -1.486305         1.569999
 C        -1.813533        -0.410679         1.128872
 C        -1.949816         0.348570        -0.171209
 C        -1.644720        -0.984671        -0.957423
 C        -0.590178        -1.221128         0.159602
 O        -0.205437        -2.502911         0.430255
 C         0.315448         0.054002         0.193117
 O         1.505348         0.142426         0.405777
 C        -0.638902         1.184601        -0.223629
 H        -3.658097        -1.788105         0.800844
 H        -2.390118        -2.488806         1.822922
 H        -3.424255        -1.023858         2.446584
 H        -1.409617         0.145335         1.961163
 H        -2.935383         0.852063        -0.359060
 H        -2.490156        -1.591134        -0.748317
 H        -1.307277        -1.059981        -2.011649
 H         0.756832        -2.498762         0.547592
 H        -0.770745         2.212361         0.198197
 H        -0.225275         1.315720        -1.281865
