19
Iteration:  2429charge 0 multiplicity 1
 C        -3.023994        -1.391991         1.521244
 C        -1.798431        -0.545402         1.107337
 C        -1.983630         0.417339        -0.054592
 C        -1.657501        -0.854335        -1.024726
 C        -0.653143        -1.235408         0.201834
 O        -0.005345        -2.436477         0.505051
 C         0.282886        -0.038663         0.120841
 O         1.487948        -0.046893         0.116215
 C        -0.629031         1.198212         0.044207
 H        -3.968515        -0.787783         1.512839
 H        -3.038695        -2.188664         0.817867
 H        -2.823293        -1.829487         2.508206
 H        -1.232239        -0.278362         1.935234
 H        -2.942953         0.967770        -0.222760
 H        -2.487039        -1.560253        -1.146844
 H        -1.478048        -0.576992        -2.018964
 H         0.915625        -2.204185         0.668476
 H        -0.832736         1.784868         0.954383
 H        -0.408971         1.919680        -0.806569
