19
Iteration:  2925
 C        -2.888736        -1.357423         1.568825
 C        -1.750246        -0.457042         1.133247
 C        -1.982191         0.302837        -0.300439
 C        -1.634034        -1.025009        -1.004314
 C        -0.689273        -1.182033         0.299202
 O        -0.006780        -2.399274         0.460524
 C         0.217207         0.104244         0.204944
 O         1.379586        -0.057766         0.496372
 C        -0.665454         1.177365        -0.308414
 H        -3.441670        -1.021360         2.501382
 H        -3.714577        -1.630734         0.854595
 H        -2.340481        -2.338384         1.799175
 H        -1.482213         0.216451         1.954458
 H        -2.865797         0.844067        -0.556772
 H        -2.412205        -1.826285        -1.066930
 H        -1.121311        -0.896880        -1.950019
 H         0.975380        -2.265849         0.159444
 H        -0.668807         2.133211         0.348369
 H        -0.317871         1.457275        -1.319392
