19
Iteration:  1549
 C        -2.864673        -1.486275         1.698940
 C        -1.855287        -0.495273         1.062369
 C        -2.018535         0.375341        -0.295039
 C        -1.612207        -0.868697        -1.066870
 C        -0.610070        -1.185998         0.191694
 O        -0.216376        -2.489541         0.388026
 C         0.295699         0.008400         0.163068
 O         1.498500         0.022519         0.262313
 C        -0.621626         1.215549         0.053835
 H        -3.377491        -2.318555         1.028134
 H        -2.116251        -1.965841         2.321020
 H        -3.577421        -0.932625         2.222888
 H        -1.446564         0.203710         1.871696
 H        -2.827103         1.062788        -0.534535
 H        -2.433078        -1.551704        -1.306635
 H        -1.049929        -0.847565        -2.006201
 H         0.513756        -2.613345         0.934773
 H        -0.704296         1.766633         1.058905
 H        -0.195195         2.025198        -0.560970
