19
Iteration:  1991
 C        -2.962885        -1.613669         1.475819
 C        -1.719393        -0.556598         1.156887
 C        -1.911795         0.427134         0.008112
 C        -1.787565        -0.694277        -0.923402
 C        -0.695247        -1.181762         0.205708
 O        -0.085950        -2.411845         0.466144
 C         0.301076         0.003927         0.059720
 O         1.510808        -0.027946         0.241609
 C        -0.589883         1.135753        -0.169102
 H        -3.064291        -2.362207         0.712015
 H        -2.812459        -2.186915         2.460445
 H        -3.952518        -1.034448         1.437723
 H        -1.453381         0.018475         2.085423
 H        -2.727298         1.168395        -0.103091
 H        -2.658714        -1.354442        -0.914783
 H        -1.494252        -0.563981        -2.013167
 H         0.666567        -2.199242         1.080990
 H        -0.405303         1.918772         0.536867
 H        -0.636302         1.498923        -1.233157
