19
Iteration:  4088
 C        -2.959685        -1.499363         1.515613
 C        -1.802424        -0.502040         1.167337
 C        -1.935916         0.410805        -0.137159
 C        -1.566957        -0.876679        -1.011462
 C        -0.655768        -1.182883         0.285855
 O        -0.164105        -2.548089         0.537074
 C         0.296679         0.055787         0.098520
 O         1.508950         0.056333         0.245681
 C        -0.669874         1.193564        -0.125813
 H        -3.252587        -2.293319         0.717554
 H        -2.630996        -2.050256         2.424070
 H        -3.944806        -0.956193         1.570917
 H        -1.616082         0.105350         2.065716
 H        -2.727707         1.133133        -0.328753
 H        -2.376398        -1.590411        -1.043914
 H        -1.137713        -0.730878        -2.068204
 H         0.762164        -2.472650         0.264586
 H        -0.712320         1.925844         0.655396
 H        -0.486387         1.719970        -1.150181
