19
Iteration:  3198
 C        -2.893388        -1.414617         1.711964
 C        -1.894011        -0.264542         1.142187
 C        -1.988910         0.347888        -0.187126
 C        -1.620749        -1.042858        -0.962640
 C        -0.685105        -1.163331         0.129535
 O         0.005774        -2.429950         0.253394
 C         0.251717         0.004738         0.215405
 O         1.412484        -0.040003         0.496456
 C        -0.613420         1.129763        -0.262526
 H        -2.937178        -2.225548         1.112037
 H        -2.619116        -1.842465         2.718678
 H        -3.995238        -1.152464         1.599357
 H        -1.373013         0.288573         2.032909
 H        -2.892357         0.998471        -0.450579
 H        -2.539777        -1.675185        -0.888359
 H        -1.207929        -1.030290        -2.032446
 H         1.034025        -2.251877         0.282395
 H        -0.680953         1.903558         0.541418
 H        -0.290118         1.457356        -1.213312
