19
Iteration:   950
 C        -3.025611        -1.338002         1.775067
 C        -1.843146        -0.481545         1.114771
 C        -2.001033         0.352569        -0.123845
 C        -1.619384        -0.860248        -1.039480
 C        -0.638188        -1.246414         0.074908
 O         0.064930        -2.382009         0.243754
 C         0.248848        -0.077002         0.118517
 O         1.471551        -0.120712         0.400985
 C        -0.731012         1.162144        -0.083354
 H        -3.445967        -2.030212         1.102745
 H        -2.547217        -2.021689         2.501791
 H        -3.453499        -0.547150         2.382906
 H        -1.385044         0.119055         1.906749
 H        -2.894173         0.957332        -0.304734
 H        -2.259136        -1.668875        -1.214021
 H        -1.098872        -0.658706        -1.995592
 H         0.814870        -1.926303         0.631651
 H        -0.672128         1.968374         0.695778
 H        -0.463085         1.817725        -0.929949
