19
Iteration:  4072
 C        -2.989233        -1.434184         1.579224
 C        -1.782979        -0.634949         1.161379
 C        -2.008927         0.348294        -0.160919
 C        -1.596965        -0.841870        -0.964272
 C        -0.655270        -1.219913         0.242730
 O        -0.154844        -2.454383         0.451886
 C         0.295554         0.020205         0.230467
 O         1.530171         0.095458         0.329646
 C        -0.604907         1.217692        -0.281132
 H        -3.320662        -2.036051         0.791676
 H        -2.917114        -1.994604         2.505159
 H        -3.860626        -0.855153         1.847738
 H        -1.214628        -0.280717         2.065195
 H        -3.102637         0.642668        -0.342539
 H        -2.467753        -1.520118        -1.180461
 H        -1.018970        -0.683033        -1.887594
 H         0.671954        -2.500247         0.027341
 H        -0.480335         2.137180         0.367153
 H        -0.314608         1.487119        -1.240891
