19
Iteration:  3018
 C        -3.129478        -1.563761         1.386826
 C        -1.971560        -0.465387         1.248506
 C        -1.954309         0.392724        -0.278057
 C        -1.519251        -0.952629        -0.838182
 C        -0.631935        -1.104941         0.410361
 O        -0.094929        -2.393340         0.700895
 C         0.383045         0.015503         0.109771
 O         1.611701         0.025248        -0.052913
 C        -0.687409         1.164251        -0.084116
 H        -4.107337        -1.226842         0.940165
 H        -2.837749        -2.471802         0.845093
 H        -3.198799        -1.823364         2.421810
 H        -1.716196         0.071477         2.216555
 H        -2.921129         0.914443        -0.511216
 H        -2.290282        -1.695670        -0.892374
 H        -0.915818        -0.926878        -1.779987
 H         0.808027        -2.289605         0.346067
 H        -0.732151         1.872129         0.704864
 H        -0.355223         1.755385        -0.977499
