19
Iteration:  2116charge 0 multiplicity 1
 C        -2.949761        -1.453474         1.493458
 C        -1.746788        -0.507198         1.216967
 C        -2.001729         0.469538         0.020274
 C        -1.691999        -0.852372        -0.846767
 C        -0.633715        -1.180301         0.155542
 O        -0.063821        -2.484001         0.288991
 C         0.294845        -0.022290         0.209701
 O         1.502275        -0.065442         0.262173
 C        -0.675547         1.245958        -0.211339
 H        -3.725413        -1.337402         0.666283
 H        -2.823872        -2.534387         1.479631
 H        -3.413316        -1.140002         2.406249
 H        -1.298980        -0.236190         2.123287
 H        -2.959536         1.000926        -0.120434
 H        -2.385231        -1.711208        -0.762495
 H        -1.264337        -0.843457        -1.871803
 H         0.809183        -2.271037         0.595190
 H        -0.507104         2.059329         0.590502
 H        -0.720407         1.520100        -1.241876
