19
Iteration:  2639charge 0 multiplicity 1
 C        -2.874060        -1.462989         1.646431
 C        -1.757355        -0.506771         1.129188
 C        -1.993379         0.414944        -0.139749
 C        -1.621723        -0.911372        -1.004137
 C        -0.707155        -1.204730         0.117971
 O        -0.078390        -2.421833         0.426992
 C         0.282230         0.040818         0.134683
 O         1.430837        -0.032636         0.506936
 C        -0.690578         1.157364        -0.312046
 H        -2.961348        -2.477300         1.004767
 H        -2.792150        -1.708077         2.660114
 H        -3.862783        -1.033238         1.525944
 H        -1.270819         0.081830         2.056594
 H        -2.916476         1.037643        -0.262642
 H        -2.562799        -1.440743        -1.208002
 H        -1.131123        -0.743161        -1.967538
 H         0.923104        -2.114190         0.536249
 H        -0.453271         2.050010         0.359138
 H        -0.404643         1.403019        -1.368978
