19
Iteration:  2126
 C        -2.978700        -1.488866         1.519799
 C        -1.777313        -0.558973         1.202837
 C        -1.981510         0.418702        -0.016946
 C        -1.713974        -0.792318        -0.883470
 C        -0.638382        -1.185961         0.247950
 O        -0.047877        -2.401435         0.336719
 C         0.264778        -0.007503         0.115640
 O         1.490303        -0.072582         0.254497
 C        -0.629063         1.162189        -0.170371
 H        -3.831081        -1.284782         0.768080
 H        -2.694847        -2.504048         1.513224
 H        -3.406187        -1.305888         2.505445
 H        -1.379398        -0.025154         2.049966
 H        -2.921490         0.993388         0.030395
 H        -2.575405        -1.447091        -1.067868
 H        -1.192136        -0.578868        -1.832027
 H         0.904714        -2.258621         0.238708
 H        -0.349319         2.079217         0.421327
 H        -0.317407         1.459574        -1.131590
