19
Iteration:  2163charge 0 multiplicity 1
 C        -2.911149        -1.518392         1.583621
 C        -1.735034        -0.590454         1.061691
 C        -2.058038         0.447520        -0.095085
 C        -1.603684        -0.768887        -1.007270
 C        -0.670274        -1.141668         0.174839
 O        -0.106983        -2.418213         0.553439
 C         0.267932         0.038362         0.055969
 O         1.484575        -0.183516         0.125302
 C        -0.645173         1.253379         0.045741
 H        -3.799477        -1.516050         1.082438
 H        -2.635362        -2.687856         1.475143
 H        -2.980358        -1.258220         2.648855
 H        -1.550751        -0.032193         1.970605
 H        -3.018063         0.922719        -0.234822
 H        -2.518867        -1.341860        -1.173041
 H        -1.219027        -0.403315        -1.981990
 H         0.822311        -2.189335         0.635218
 H        -0.742780         1.847245         0.972590
 H        -0.267704         1.757188        -0.953886
