19
Iteration:  3788charge 0 multiplicity 1
 C        -2.806143        -1.503284         1.692671
 C        -1.838095        -0.448433         1.074561
 C        -1.969897         0.363940        -0.264337
 C        -1.536470        -0.927030        -1.053958
 C        -0.672308        -1.180794         0.163275
 O        -0.225980        -2.450799         0.503941
 C         0.279854         0.028900         0.159984
 O         1.442331         0.012662         0.432433
 C        -0.642259         1.202942        -0.195318
 H        -3.527696        -1.976220         1.040657
 H        -2.132125        -2.184127         2.089545
 H        -3.368321        -0.984338         2.449031
 H        -1.472718         0.084469         1.896824
 H        -2.901623         0.880912        -0.584978
 H        -2.406472        -1.651877        -1.190917
 H        -1.179208        -0.801129        -2.084582
 H         0.693532        -2.318343         0.296663
 H        -0.550206         2.094425         0.507472
 H        -0.532747         1.545800        -1.176944
