19
Iteration:  2721charge 0 multiplicity 1
 C        -3.102330        -1.412442         1.439763
 C        -1.886980        -0.558094         1.130466
 C        -1.980034         0.289707        -0.158966
 C        -1.481027        -0.905314        -0.971957
 C        -0.623916        -1.170642         0.323646
 O        -0.119711        -2.427694         0.677668
 C         0.336372        -0.012826         0.124900
 O         1.584404         0.065361         0.041278
 C        -0.741134         1.203425        -0.062086
 H        -3.882877        -1.255501         0.772881
 H        -2.769240        -2.536732         1.331432
 H        -3.421555        -1.155245         2.494522
 H        -1.472590        -0.106735         2.045727
 H        -2.881359         0.902116        -0.374368
 H        -2.133677        -1.830379        -1.043194
 H        -1.024016        -0.784968        -2.047850
 H         0.870372        -2.166408         0.771599
 H        -0.703715         1.940006         0.764145
 H        -0.400857         1.700703        -0.986581
