19
Iteration:   713
 C        -2.770101        -1.480903         1.678019
 C        -1.808633        -0.567561         1.114406
 C        -1.970154         0.379154        -0.205276
 C        -1.620550        -0.750111        -1.086580
 C        -0.695915        -1.188743         0.133007
 O        -0.221940        -2.389014         0.505105
 C         0.276866        -0.022406         0.087655
 O         1.444532        -0.043880         0.302120
 C        -0.665696         1.171857        -0.048612
 H        -3.124098        -2.192378         0.996312
 H        -2.182966        -2.188297         2.256613
 H        -3.625979        -1.128086         2.214427
 H        -1.406263         0.136430         1.860202
 H        -2.826188         1.024250        -0.265388
 H        -2.348749        -1.417639        -1.444892
 H        -0.935466        -0.574595        -1.964666
 H         0.725863        -2.767756         0.437272
 H        -0.560657         1.732661         0.833612
 H        -0.371542         1.921668        -0.771572
