19
Iteration:   718charge 0 multiplicity 1
 C        -2.772896        -1.498120         1.663272
 C        -1.812520        -0.547974         1.137671
 C        -1.982572         0.406268        -0.216881
 C        -1.599503        -0.773201        -1.097766
 C        -0.700838        -1.140386         0.154842
 O        -0.210669        -2.399080         0.489187
 C         0.262561        -0.070288         0.076528
 O         1.472155        -0.029980         0.284448
 C        -0.667686         1.149454        -0.006279
 H        -3.105178        -2.171428         0.768472
 H        -2.289705        -2.191811         2.403148
 H        -3.628030        -1.082220         2.264166
 H        -1.525499         0.169845         1.916917
 H        -2.878865         1.055834        -0.396680
 H        -2.475263        -1.497932        -1.266097
 H        -0.886470        -0.619615        -1.886712
 H         0.674657        -2.654746         0.396654
 H        -0.526387         1.854304         0.901541
 H        -0.403061         1.808257        -0.878239
