19
Iteration:  4359
 C        -3.075935        -1.391257         1.576202
 C        -1.815927        -0.549062         1.140271
 C        -1.970358         0.302782        -0.184545
 C        -1.536374        -0.904662        -1.024165
 C        -0.625786        -1.189224         0.198884
 O        -0.066481        -2.398860         0.473683
 C         0.278481         0.032836         0.128830
 O         1.482755         0.022199         0.245259
 C        -0.651454         1.163952        -0.088790
 H        -3.640211        -1.981900         0.813511
 H        -2.924847        -2.154716         2.379301
 H        -3.656219        -0.610277         2.035714
 H        -1.430673        -0.097172         2.024442
 H        -2.969570         0.693770        -0.406868
 H        -2.322072        -1.664807        -0.969682
 H        -1.131407        -0.789589        -1.973314
 H         0.853489        -2.406427         0.878593
 H        -0.512324         1.792917         0.837684
 H        -0.290571         1.776516        -0.948702
