19
Iteration:  1232charge 0 multiplicity 1
 C        -2.798263        -1.503325         1.543826
 C        -1.811910        -0.474379         1.171823
 C        -1.957511         0.448196        -0.079583
 C        -1.740138        -0.850744        -0.963431
 C        -0.659291        -1.171792         0.170882
 O        -0.147122        -2.491595         0.304650
 C         0.285009         0.064720         0.127656
 O         1.459090        -0.047920         0.462830
 C        -0.615327         1.189177        -0.241532
 H        -3.153044        -2.319414         0.738671
 H        -2.408739        -2.229559         2.295215
 H        -3.515572        -0.945622         2.191340
 H        -1.494891        -0.107800         2.127238
 H        -2.848559         1.075204        -0.312820
 H        -2.558906        -1.594067        -0.957604
 H        -1.272679        -0.747045        -2.061215
 H         0.732915        -2.331947         0.799630
 H        -0.650952         2.018045         0.528534
 H        -0.388989         1.507542        -1.245641
