19
Iteration:   806
 C        -3.051327        -1.367681         1.574208
 C        -1.805403        -0.638471         1.082093
 C        -1.978331         0.393363        -0.093085
 C        -1.577125        -0.818951        -0.980742
 C        -0.650693        -1.202893         0.180294
 O         0.014123        -2.391353         0.534442
 C         0.288594         0.012268         0.210424
 O         1.471677        -0.100080         0.097788
 C        -0.670878         1.227028        -0.025941
 H        -3.444097        -2.051550         0.743472
 H        -2.832553        -2.268835         2.182096
 H        -3.908516        -0.727605         1.856550
 H        -1.408808        -0.198907         1.995891
 H        -2.975177         0.829633        -0.215851
 H        -2.372770        -1.602824        -1.044086
 H        -1.339658        -0.822557        -2.023184
 H         0.887399        -2.308148        -0.021147
 H        -0.734804         1.850029         0.937833
 H        -0.429332         2.021037        -0.754399
