19
Iteration:  2405
 C        -2.963783        -1.505550         1.639435
 C        -1.840221        -0.554602         1.160826
 C        -1.972148         0.404120        -0.082959
 C        -1.546263        -0.798360        -1.040519
 C        -0.702472        -1.100779         0.240987
 O        -0.052967        -2.356168         0.388119
 C         0.282089         0.063349         0.132289
 O         1.457019        -0.215746         0.229994
 C        -0.667912         1.150359        -0.083725
 H        -3.807076        -0.989114         1.311169
 H        -2.837372        -2.607539         1.302379
 H        -2.914386        -1.402259         2.750396
 H        -1.369404        -0.132143         2.060584
 H        -2.868108         0.948478        -0.370170
 H        -2.374211        -1.428978        -1.339699
 H        -1.159481        -0.527465        -2.031771
 H         0.914670        -2.108607         0.260255
 H        -0.598301         1.841123         0.760005
 H        -0.657595         1.762312        -1.049299
