19
Iteration:  4454charge 0 multiplicity 1
 C        -2.870587        -1.497579         1.378116
 C        -1.799721        -0.517186         1.126758
 C        -1.987706         0.416780        -0.145255
 C        -1.552821        -0.822859        -1.004204
 C        -0.678927        -1.173223         0.332064
 O        -0.187546        -2.471309         0.669871
 C         0.316644        -0.000573         0.167809
 O         1.519613        -0.040711         0.056153
 C        -0.743223         1.217447        -0.092111
 H        -3.218273        -2.082364         0.661802
 H        -2.445958        -2.305745         2.014186
 H        -3.584862        -0.964790         2.029351
 H        -1.576555         0.191546         1.976252
 H        -2.994575         0.931726        -0.258978
 H        -2.413703        -1.495295        -1.100462
 H        -1.051214        -0.697973        -1.993805
 H         0.797579        -2.402241         1.015001
 H        -0.748890         1.852493         0.851447
 H        -0.416649         1.803456        -0.833005
