19
Iteration:   826
 C        -2.949514        -1.476697         1.618847
 C        -1.856938        -0.506422         1.146137
 C        -1.976344         0.335419        -0.170157
 C        -1.507599        -0.875949        -1.007038
 C        -0.676465        -1.135375         0.261102
 O        -0.127282        -2.401853         0.445558
 C         0.287922         0.005167         0.111513
 O         1.483728        -0.080646         0.126632
 C        -0.654972         1.197659         0.058897
 H        -3.477852        -1.938219         0.712555
 H        -2.535709        -2.313713         2.177783
 H        -3.668048        -0.756091         2.024898
 H        -1.584784         0.124218         1.992759
 H        -2.874435         0.988753        -0.340706
 H        -2.294259        -1.591754        -1.436425
 H        -1.005658        -0.733005        -1.979847
 H         0.803107        -1.959024         0.422417
 H        -0.634727         1.748132         1.029887
 H        -0.558371         1.734375        -0.851667
