19
Iteration:  3212charge 0 multiplicity 1
 C        -2.921938        -1.333401         1.586384
 C        -1.857776        -0.448956         1.176235
 C        -2.018550         0.368318        -0.183024
 C        -1.638564        -0.951335        -0.911715
 C        -0.605914        -1.256401         0.190921
 O         0.021637        -2.426132         0.285276
 C         0.251700        -0.014691         0.170377
 O         1.428832        -0.046162         0.429015
 C        -0.677354         1.181811        -0.217754
 H        -2.922954        -2.274014         0.981669
 H        -2.697471        -1.595582         2.707109
 H        -3.905351        -0.837397         1.773366
 H        -1.567867         0.246825         2.016195
 H        -3.035487         0.831361        -0.409007
 H        -2.370395        -1.739188        -0.918630
 H        -1.205430        -0.908473        -1.965166
 H         0.850175        -2.252523         0.743436
 H        -0.454460         2.122855         0.316513
 H        -0.411405         1.529446        -1.272387
