19
Iteration:  4446
 C        -2.902736        -1.550222         1.393863
 C        -1.826854        -0.489177         1.145340
 C        -1.950183         0.389026        -0.150155
 C        -1.577284        -0.798479        -1.001112
 C        -0.611178        -1.126668         0.374661
 O        -0.184498        -2.466671         0.672309
 C         0.305375         0.007037         0.141986
 O         1.531896        -0.064137         0.037411
 C        -0.738384         1.220506        -0.099539
 H        -3.356988        -1.958805         0.375449
 H        -2.557149        -2.417596         2.067454
 H        -3.749903        -1.041922         1.977724
 H        -1.560657        -0.042011         2.106027
 H        -2.851341         0.975177        -0.347537
 H        -2.387289        -1.562214        -1.095017
 H        -1.111603        -0.620994        -1.877041
 H         0.718323        -2.192224         1.053512
 H        -0.634117         1.809983         0.861961
 H        -0.585647         1.831538        -1.000862
