19
Iteration:  2445charge 0 multiplicity 1
 C        -2.996223        -1.402900         1.408070
 C        -1.765675        -0.593265         1.178400
 C        -1.955142         0.343095        -0.074512
 C        -1.656478        -0.833343        -0.924230
 C        -0.657197        -1.209604         0.254467
 O        -0.077999        -2.459184         0.501252
 C         0.302614         0.006132         0.114607
 O         1.494788         0.026918         0.058783
 C        -0.652527         1.174751         0.031730
 H        -3.781299        -0.631272         1.741889
 H        -3.611814        -1.949041         0.585039
 H        -2.864079        -2.123209         2.229372
 H        -1.636036         0.134884         2.086160
 H        -2.839838         0.947477        -0.157782
 H        -2.534234        -1.514437        -0.985088
 H        -1.084938        -0.971600        -1.946089
 H         0.961231        -2.238861         0.574038
 H        -0.430474         1.760534         0.973004
 H        -0.410416         1.794117        -0.789297
