19
Iteration:  1963
 C        -3.100165        -1.484775         1.465751
 C        -1.696865        -0.543197         1.239760
 C        -2.004111         0.406733         0.051611
 C        -1.570996        -0.851200        -0.909171
 C        -0.681992        -1.177816         0.289357
 O        -0.123872        -2.464283         0.379364
 C         0.335693         0.031228         0.099997
 O         1.545792        -0.007754         0.109293
 C        -0.673354         1.209687        -0.119105
 H        -3.179418        -2.154290         0.540432
 H        -3.000497        -2.098556         2.294013
 H        -4.000667        -0.904995         1.486157
 H        -1.402005        -0.095262         2.183712
 H        -2.951506         0.952699        -0.085209
 H        -2.287633        -1.659995        -1.060569
 H        -1.029192        -0.752008        -1.833794
 H         0.725559        -2.428635         0.806915
 H        -0.458253         2.049539         0.652387
 H        -0.596702         1.670753        -1.084926
