19
Iteration:  2147charge 0 multiplicity 1
 C        -2.945174        -1.544841         1.608013
 C        -1.847679        -0.565943         1.193654
 C        -1.933446         0.406119        -0.048056
 C        -1.705390        -0.717927        -1.112717
 C        -0.699046        -1.179168         0.173219
 O        -0.054170        -2.319784         0.519601
 C         0.268190        -0.056424         0.126453
 O         1.521127        -0.130526         0.182799
 C        -0.629536         1.188546        -0.093908
 H        -3.941711        -1.375999         0.976247
 H        -2.703259        -2.534204         1.533321
 H        -3.244850        -1.428819         2.662778
 H        -1.199614        -0.239621         2.017664
 H        -2.824923         1.079906        -0.154758
 H        -2.428968        -1.546193        -1.193852
 H        -1.197054        -0.518051        -2.063905
 H         0.894085        -2.128799         0.099118
 H        -0.413371         1.826779         0.795888
 H        -0.640500         1.817888        -0.930510
