19
Iteration:  1685charge 0 multiplicity 1
 C        -2.882118        -1.584224         1.679546
 C        -1.872106        -0.524426         1.130243
 C        -1.945040         0.393138        -0.189653
 C        -1.469275        -0.824031        -1.031269
 C        -0.705872        -1.133170         0.259177
 O        -0.247913        -2.428794         0.412646
 C         0.293719         0.020191         0.197598
 O         1.503772        -0.046619         0.163903
 C        -0.672499         1.227468        -0.075768
 H        -3.414783        -2.295473         1.189577
 H        -2.277419        -2.078721         2.505751
 H        -3.732218        -0.978332         2.096078
 H        -1.463234         0.112972         2.015591
 H        -2.738519         0.949284        -0.651268
 H        -2.370522        -1.453617        -1.200597
 H        -0.934242        -0.646442        -2.010607
 H         0.686790        -2.430671         0.305125
 H        -0.739991         1.755124         0.861527
 H        -0.211805         1.885942        -0.839736
