19
Iteration:  1925
 C        -3.024526        -1.416103         1.657734
 C        -1.901124        -0.543002         1.075516
 C        -1.934065         0.398235        -0.161850
 C        -1.470810        -0.916803        -1.056642
 C        -0.727565        -1.217119         0.222992
 O        -0.047482        -2.435582         0.498017
 C         0.278456        -0.003224         0.147046
 O         1.491407        -0.009537         0.052863
 C        -0.675028         1.190463         0.135406
 H        -3.514093        -1.903208         0.867244
 H        -2.937314        -2.280347         2.419458
 H        -3.821740        -0.713836         2.086950
 H        -1.302902         0.033224         1.707280
 H        -2.772783         1.092633        -0.098885
 H        -2.320413        -1.589430        -1.333403
 H        -0.862391        -0.614491        -1.967464
 H         0.732284        -2.243534         0.034564
 H        -0.662662         1.672334         1.080774
 H        -0.318403         1.868902        -0.717338
