19
Iteration:  1291charge 0 multiplicity 1
 C        -2.960971        -1.328674         1.543232
 C        -1.735738        -0.502656         1.169951
 C        -2.008723         0.338050        -0.109793
 C        -1.540150        -0.888579        -0.994927
 C        -0.667879        -1.230893         0.211286
 O        -0.062591        -2.543134         0.337982
 C         0.266573         0.021520         0.169836
 O         1.492447         0.014842         0.226473
 C        -0.700924         1.207953         0.017961
 H        -3.542198        -1.756878         0.748909
 H        -2.794066        -2.125557         2.291246
 H        -3.898048        -0.650300         1.789120
 H        -1.505157         0.131012         2.117636
 H        -3.022193         0.679852        -0.333536
 H        -2.533541        -1.511069        -0.998261
 H        -1.209989        -0.969981        -2.081060
 H         0.901206        -2.375755         0.329135
 H        -0.898615         1.804689         0.899831
 H        -0.327732         1.935621        -0.748502
