19
Iteration:  4798charge 0 multiplicity 1
 C        -2.833015        -1.473854         1.577957
 C        -1.762964        -0.498421         1.122915
 C        -2.030037         0.390611        -0.215188
 C        -1.730577        -0.947530        -1.000569
 C        -0.708909        -1.214821         0.173654
 O        -0.154775        -2.321826         0.478711
 C         0.303133        -0.045648         0.028373
 O         1.471793         0.011635         0.442565
 C        -0.583913         1.165573        -0.129853
 H        -3.290247        -2.090621         0.700698
 H        -2.345324        -2.303425         2.053172
 H        -3.511722        -1.068790         2.292590
 H        -1.401374         0.071987         2.003020
 H        -2.846234         1.036301        -0.460253
 H        -2.373406        -1.662208        -0.825284
 H        -1.173084        -0.756162        -2.021977
 H         0.721194        -2.115318         0.766803
 H        -0.483522         2.036045         0.471744
 H        -0.353749         1.421368        -1.264658
