19
Iteration:   495charge 0 multiplicity 1
 C        -2.986584        -1.462398         1.485985
 C        -1.856777        -0.572099         1.128203
 C        -1.981347         0.420566        -0.070989
 C        -1.647258        -0.822870        -0.959784
 C        -0.692810        -1.185442         0.250068
 O        -0.060353        -2.364450         0.531853
 C         0.339991        -0.034350         0.101884
 O         1.588192        -0.081426         0.125227
 C        -0.680963         1.179595        -0.064097
 H        -3.352634        -2.118766         0.733339
 H        -2.878612        -1.971706         2.460602
 H        -3.983881        -0.927883         1.671637
 H        -1.560180        -0.105144         2.085994
 H        -3.000089         0.813297        -0.231166
 H        -2.418033        -1.552725        -1.084681
 H        -1.178573        -0.584761        -1.890237
 H         0.890634        -2.211825         0.265783
 H        -0.483471         1.626043         0.952496
 H        -0.538849         2.003673        -0.795668
