19
Iteration:  3360charge 0 multiplicity 1
 C        -3.069379        -1.466062         1.417176
 C        -1.797926        -0.626505         1.215890
 C        -1.989047         0.338374        -0.162796
 C        -1.589347        -0.943176        -0.899109
 C        -0.629980        -1.118950         0.293866
 O        -0.026185        -2.348109         0.635415
 C         0.272199         0.061393         0.068631
 O         1.493270        -0.081807         0.147142
 C        -0.628020         1.258673        -0.136525
 H        -3.751248        -1.385396         0.391997
 H        -2.917491        -2.581432         1.577000
 H        -3.708887        -1.005111         2.240768
 H        -1.682478         0.019920         2.084293
 H        -2.946555         0.910377        -0.225142
 H        -2.351894        -1.668391        -1.045071
 H        -1.024139        -0.872990        -1.842519
 H         0.855691        -2.376185         0.257311
 H        -0.488808         2.058959         0.679528
 H        -0.408240         1.846538        -1.058374
