19
Iteration:    92charge 0 multiplicity 1
 C        -2.881884        -1.381404         1.791924
 C        -1.773400        -0.536482         1.072707
 C        -2.010509         0.430794        -0.139591
 C        -1.585128        -0.890703        -1.116101
 C        -0.709827        -1.201730         0.147835
 O        -0.054713        -2.381397         0.231333
 C         0.209172        -0.065488         0.191270
 O         1.409792        -0.138847         0.371320
 C        -0.653906         1.232444        -0.047863
 H        -2.729536        -2.480352         1.740446
 H        -2.810733        -1.166914         2.893998
 H        -3.812506        -1.035216         1.322437
 H        -1.357877         0.012644         1.925788
 H        -2.956611         1.014764        -0.222187
 H        -2.427166        -1.658023        -1.246173
 H        -0.893373        -0.628618        -1.922112
 H         0.907908        -2.249635         0.288877
 H        -0.634605         1.826763         0.867062
 H        -0.241683         1.747505        -0.960600
