19
Iteration:  2408charge 0 multiplicity 1
 C        -2.966442        -1.511859         1.632933
 C        -1.820934        -0.564849         1.169231
 C        -1.978280         0.382220        -0.095512
 C        -1.569769        -0.784886        -1.046650
 C        -0.707134        -1.110622         0.208721
 O        -0.043829        -2.365057         0.410932
 C         0.289305         0.045221         0.123015
 O         1.468577        -0.203426         0.218833
 C        -0.677022         1.181023        -0.060670
 H        -3.906636        -0.870393         1.310470
 H        -2.905813        -2.496998         1.311233
 H        -2.953863        -1.435053         2.732516
 H        -1.498077        -0.033585         2.029041
 H        -2.950964         0.915632        -0.311757
 H        -2.407013        -1.463866        -1.295445
 H        -1.069359        -0.581310        -1.978750
 H         0.967083        -2.091575         0.284628
 H        -0.473243         1.849636         0.835251
 H        -0.568708         1.774453        -1.028050
