19
Iteration:  2009
 C        -2.786866        -1.540175         1.522133
 C        -1.769318        -0.530457         1.187531
 C        -2.027791         0.487174        -0.119376
 C        -1.765414        -0.812515        -0.996468
 C        -0.686660        -1.168197         0.192200
 O        -0.122461        -2.416901         0.438740
 C         0.285204        -0.022433         0.133349
 O         1.496683        -0.129859         0.318426
 C        -0.652063         1.269338        -0.156398
 H        -2.822915        -2.337234         0.793726
 H        -2.507503        -1.967539         2.539097
 H        -3.748275        -1.095664         1.581834
 H        -1.351063        -0.265865         2.223530
 H        -2.947164         1.055491        -0.114370
 H        -2.615037        -1.512655        -1.031015
 H        -1.427966        -0.645379        -2.010311
 H         0.833198        -2.396426         0.263163
 H        -0.498815         2.011344         0.636425
 H        -0.205172         1.822090        -1.012147
