19
Iteration:  3793charge 0 multiplicity 1
 C        -2.808733        -1.511059         1.698958
 C        -1.867879        -0.468191         1.073404
 C        -1.980831         0.389459        -0.233084
 C        -1.512691        -0.948362        -1.098488
 C        -0.666983        -1.150196         0.225419
 O        -0.249230        -2.433470         0.506095
 C         0.282630        -0.009822         0.153063
 O         1.476775         0.019118         0.416546
 C        -0.687526         1.213569        -0.200289
 H        -3.463059        -1.779866         0.811017
 H        -2.107338        -2.313591         2.203570
 H        -3.449522        -1.059092         2.506628
 H        -1.303888         0.096110         1.952667
 H        -2.905641         0.814482        -0.625248
 H        -2.301622        -1.654933        -1.176972
 H        -1.146087        -0.723573        -2.124195
 H         0.729018        -2.411041         0.232422
 H        -0.462270         2.025899         0.475736
 H        -0.469292         1.566022        -1.296600
