19
Iteration:  2902charge 0 multiplicity 1
 C        -2.905037        -1.317346         1.595767
 C        -1.797291        -0.481852         1.173582
 C        -2.013278         0.326429        -0.137038
 C        -1.564286        -0.925726        -0.990592
 C        -0.626643        -1.238161         0.137954
 O        -0.011093        -2.394840         0.400329
 C         0.283443         0.003580         0.108060
 O         1.398747         0.037047         0.628490
 C        -0.715863         1.067381        -0.462208
 H        -3.438634        -0.927567         2.586508
 H        -3.780506        -1.281361         0.951105
 H        -2.701039        -2.418432         1.674663
 H        -1.454291         0.008778         2.070400
 H        -3.005282         0.724541        -0.232678
 H        -2.321560        -1.726583        -0.979749
 H        -1.125893        -0.803201        -1.988830
 H         0.772821        -2.278264         0.890961
 H        -0.623857         2.027458         0.137173
 H        -0.587742         1.303568        -1.530655
