19
Iteration:  2780charge 0 multiplicity 1
 C        -2.979777        -1.441154         1.346762
 C        -1.809784        -0.458057         1.143436
 C        -1.938480         0.278029        -0.174925
 C        -1.641118        -0.987078        -0.967188
 C        -0.658556        -1.112439         0.300291
 O         0.008777        -2.286000         0.703846
 C         0.265690        -0.001071         0.102219
 O         1.483099        -0.139997         0.150488
 C        -0.717918         1.215450        -0.117532
 H        -4.048992        -0.922463         1.221088
 H        -2.937822        -2.301311         0.788330
 H        -2.937925        -1.897481         2.303616
 H        -1.764676         0.103636         1.987339
 H        -2.822106         0.975059        -0.262377
 H        -2.435815        -1.708606        -1.035640
 H        -1.083670        -0.732747        -1.862448
 H         1.004137        -2.166903         0.789844
 H        -0.924260         1.780371         0.816212
 H        -0.289185         1.874506        -0.870442
