19
Iteration:   919
 C        -2.915659        -1.419814         1.698629
 C        -1.700831        -0.549533         1.178812
 C        -1.937928         0.395323        -0.164924
 C        -1.647390        -0.858799        -1.034401
 C        -0.707386        -1.234484         0.096532
 O        -0.060464        -2.409744         0.313975
 C         0.235965         0.014132         0.217390
 O         1.421382        -0.073756         0.413447
 C        -0.689895         1.221024        -0.178893
 H        -3.536287        -1.877508         0.965045
 H        -2.445755        -2.155814         2.406521
 H        -3.555846        -0.681636         2.221726
 H        -1.225306         0.101685         1.908864
 H        -2.896415         0.970863        -0.164198
 H        -2.300858        -1.669908        -1.238215
 H        -1.275641        -0.681367        -2.030804
 H         0.875921        -2.392112         0.317806
 H        -0.779425         1.954265         0.608503
 H        -0.414004         1.464534        -1.251079
