19
Iteration:   249charge 0 multiplicity 1
 C        -2.948257        -1.455587         1.436732
 C        -1.823543        -0.540470         1.150644
 C        -2.041218         0.319496        -0.073401
 C        -1.663740        -0.798822        -0.938676
 C        -0.697713        -1.144553         0.254636
 O        -0.089522        -2.395432         0.503847
 C         0.322102        -0.009346         0.082673
 O         1.536017        -0.100009         0.100931
 C        -0.595283         1.213270         0.009373
 H        -3.527879        -1.740207         0.550379
 H        -2.566989        -2.436265         1.666577
 H        -3.645873        -1.134962         2.229726
 H        -1.516542        -0.121339         2.096665
 H        -2.948917         0.831271        -0.187914
 H        -2.304524        -1.571285        -1.088696
 H        -1.126551        -0.548407        -1.839463
 H         0.733252        -2.013518         0.866610
 H        -0.469118         1.880064         0.935493
 H        -0.531607         1.884876        -0.835348
