19
Iteration:  2075
 C        -2.903809        -1.392344         1.687023
 C        -1.764340        -0.608939         1.193743
 C        -1.987755         0.429853        -0.052499
 C        -1.573529        -0.838248        -1.079124
 C        -0.676075        -1.226920         0.132130
 O        -0.182300        -2.507591         0.245956
 C         0.305372        -0.057055         0.117228
 O         1.487961         0.129052         0.342891
 C        -0.680356         1.119315        -0.121132
 H        -3.638399        -1.673944         0.980198
 H        -2.554943        -2.368745         2.279988
 H        -3.335929        -0.823360         2.478351
 H        -1.149991        -0.153279         1.997907
 H        -2.859740         1.007570        -0.276907
 H        -2.383150        -1.580978        -1.070066
 H        -1.345666        -0.514343        -2.080200
 H         0.372036        -2.419278         1.117191
 H        -0.494640         1.808126         0.739903
 H        -0.270720         1.779451        -0.987857
