19
Iteration:  1932charge 0 multiplicity 1
 C        -3.067748        -1.372326         1.594927
 C        -1.818348        -0.504847         1.088024
 C        -2.013100         0.373255        -0.133285
 C        -1.473723        -0.915441        -1.018825
 C        -0.689557        -1.202507         0.238504
 O        -0.072729        -2.462633         0.438676
 C         0.289851        -0.012002         0.230295
 O         1.487983        -0.001223         0.030818
 C        -0.681334         1.189864         0.110352
 H        -3.417828        -2.094572         0.763313
 H        -2.716890        -2.101552         2.391389
 H        -3.836184        -0.789055         2.034659
 H        -1.321695         0.112571         1.980626
 H        -2.920433         0.961047        -0.300555
 H        -2.196173        -1.742130        -1.047898
 H        -0.858448        -0.769150        -1.882028
 H         0.818669        -2.380205        -0.015422
 H        -0.619263         1.831750         1.023509
 H        -0.265463         1.833729        -0.646492
