19
Iteration:  3527charge 0 multiplicity 1
 C        -2.974889        -1.350978         1.593167
 C        -1.802473        -0.461043         1.116062
 C        -1.953093         0.333796        -0.220736
 C        -1.572017        -0.921552        -1.003806
 C        -0.602530        -1.244958         0.235136
 O        -0.040417        -2.453165         0.478414
 C         0.235037         0.014022         0.160904
 O         1.432152         0.006812         0.349263
 C        -0.699695         1.129020        -0.169889
 H        -3.374178        -1.998082         0.902114
 H        -2.625977        -2.058576         2.333639
 H        -3.792145        -0.656286         1.836659
 H        -1.273008        -0.015672         1.896285
 H        -2.882759         0.863316        -0.415074
 H        -2.456141        -1.517192        -1.089003
 H        -1.202555        -0.620997        -1.930343
 H         0.942634        -2.360554         0.226781
 H        -0.894487         1.877259         0.592846
 H        -0.406274         1.758800        -0.982019
