19
Iteration:  4469
 C        -2.870851        -1.464945         1.544481
 C        -1.816785        -0.481467         1.066460
 C        -1.999810         0.344838        -0.173706
 C        -1.542225        -0.911706        -1.023639
 C        -0.652913        -1.183293         0.203613
 O        -0.229820        -2.431409         0.636392
 C         0.255150         0.007537         0.143403
 O         1.475476         0.010863         0.132404
 C        -0.614876         1.220928         0.004942
 H        -3.201028        -2.073248         0.535113
 H        -2.437991        -2.171926         2.331430
 H        -3.780250        -0.982634         2.000543
 H        -1.344530        -0.088196         1.942938
 H        -2.922433         0.835821        -0.390080
 H        -2.291168        -1.705361        -1.211602
 H        -0.991213        -0.681575        -1.876538
 H         0.737592        -2.318284         0.482858
 H        -0.601670         1.946912         0.847961
 H        -0.330954         1.700670        -1.008110
