19
Iteration:  1432charge 0 multiplicity 1
 C        -2.928099        -1.267406         1.755334
 C        -1.797197        -0.588584         1.134361
 C        -2.025689         0.290405        -0.168398
 C        -1.479703        -0.841235        -1.119700
 C        -0.690050        -1.211274         0.218178
 O        -0.086119        -2.468720         0.292895
 C         0.269524         0.001970         0.234318
 O         1.475886        -0.095019         0.293063
 C        -0.744206         1.232230        -0.064077
 H        -3.655977        -1.732108         1.135721
 H        -2.549793        -2.083780         2.398733
 H        -3.658996        -0.551808         2.180092
 H        -1.336706         0.022042         1.879645
 H        -2.959240         0.782434        -0.510205
 H        -2.138155        -1.634469        -1.516174
 H        -0.854801        -0.624147        -2.018249
 H         0.945071        -2.307370         0.303703
 H        -0.871674         1.817052         0.814675
 H        -0.546402         2.043822        -0.785877
