19
Iteration:  3304
 C        -2.955232        -1.638463         1.425231
 C        -1.865094        -0.556346         1.140941
 C        -1.934914         0.418869        -0.167355
 C        -1.441018        -0.825755        -0.958634
 C        -0.643802        -1.080294         0.355084
 O        -0.211589        -2.331690         0.734012
 C         0.276606        -0.007644         0.139881
 O         1.495033        -0.114054        -0.005866
 C        -0.691760         1.244596        -0.123689
 H        -3.815625        -1.785058         0.586561
 H        -2.392835        -2.532688         1.599295
 H        -3.256450        -1.415979         2.458349
 H        -1.698188         0.103517         1.938899
 H        -2.838909         0.967882        -0.281087
 H        -2.280458        -1.528379        -1.084983
 H        -0.904945        -0.702153        -1.868252
 H         0.729229        -2.256009         0.677504
 H        -0.498715         1.863779         0.790359
 H        -0.652806         1.872332        -1.063867
