19
Iteration:  3079charge 0 multiplicity 1
 C        -3.047652        -1.451525         1.466426
 C        -1.851091        -0.473415         1.107840
 C        -1.996462         0.342573        -0.129930
 C        -1.516278        -0.913123        -0.978832
 C        -0.648525        -1.147968         0.329689
 O         0.022895        -2.346784         0.569393
 C         0.260013        -0.017719         0.084820
 O         1.447293        -0.084878         0.230911
 C        -0.697471         1.180679        -0.197281
 H        -3.987742        -1.326423         1.011408
 H        -2.667267        -2.534617         1.608319
 H        -3.274326        -1.291515         2.581773
 H        -1.534936         0.051389         1.998748
 H        -2.964271         0.885723        -0.125130
 H        -2.251551        -1.696593        -1.182333
 H        -0.954921        -0.786080        -1.931780
 H         1.013015        -2.121971         0.649823
 H        -0.670901         1.944090         0.678934
 H        -0.394353         1.662261        -1.148471
