19
Iteration:  3098charge 0 multiplicity 1
 C        -2.996649        -1.504799         1.582806
 C        -1.888195        -0.521447         1.169407
 C        -1.967224         0.345984        -0.290370
 C        -1.640935        -0.974217        -0.903769
 C        -0.701071        -1.115485         0.286869
 O        -0.099214        -2.388305         0.437389
 C         0.357577         0.052848         0.231155
 O         1.561310         0.066958         0.307486
 C        -0.618045         1.139060        -0.237611
 H        -3.773360        -1.447103         0.816608
 H        -2.676468        -2.499204         1.661658
 H        -3.512582        -1.337536         2.531712
 H        -1.629048         0.133548         2.039766
 H        -2.794761         0.896263        -0.695453
 H        -2.466207        -1.747784        -0.814303
 H        -1.274043        -0.934038        -1.941839
 H         0.900928        -2.306406         0.263758
 H        -0.408033         1.892482         0.497442
 H        -0.436731         1.547484        -1.194191
