19
Iteration:  2404charge 0 multiplicity 1
 C        -2.960605        -1.503097         1.641947
 C        -1.845200        -0.552300         1.156888
 C        -1.971531         0.409579        -0.079657
 C        -1.540519        -0.801424        -1.037605
 C        -0.699621        -1.101814         0.250066
 O        -0.054911        -2.351829         0.380776
 C         0.278094         0.064654         0.135202
 O         1.454961        -0.218169         0.233369
 C        -0.665201         1.146032        -0.092610
 H        -3.802226        -1.035092         1.306196
 H        -2.822742        -2.621379         1.303570
 H        -2.907168        -1.403177         2.745325
 H        -1.325472        -0.150655         2.077814
 H        -2.840658         0.962151        -0.381395
 H        -2.370068        -1.430674        -1.339408
 H        -1.171057        -0.503885        -2.049987
 H         0.871688        -2.121068         0.259841
 H        -0.639397         1.845347         0.734297
 H        -0.673616         1.746959        -1.033520
