19
Iteration:  2039
 C        -2.772377        -1.461670         1.755794
 C        -1.764821        -0.541048         1.165484
 C        -2.023945         0.402646        -0.216750
 C        -1.544744        -0.798233        -1.093160
 C        -0.703878        -1.155173         0.197725
 O        -0.232886        -2.410663         0.314990
 C         0.286723        -0.019892         0.152656
 O         1.482967        -0.084418         0.368839
 C        -0.736817         1.210054        -0.105118
 H        -3.091855        -2.312374         1.017512
 H        -2.286807        -1.958429         2.556877
 H        -3.695834        -0.970664         2.111449
 H        -1.323384        -0.128668         2.009755
 H        -2.999401         0.960159        -0.278737
 H        -2.319029        -1.565829        -1.253456
 H        -1.042880        -0.631331        -2.067788
 H         0.689372        -2.524002        -0.147388
 H        -0.678527         1.836947         0.905717
 H        -0.276424         1.690788        -0.935973
