19
Iteration:   384
 C        -2.764956        -1.535375         1.571706
 C        -1.798289        -0.452003         1.162912
 C        -1.989216         0.458117        -0.103858
 C        -1.590627        -0.811634        -0.997028
 C        -0.705669        -1.110644         0.182748
 O        -0.256836        -2.476617         0.403762
 C         0.271162        -0.035874         0.142338
 O         1.462898        -0.047376         0.459581
 C        -0.673428         1.190711        -0.269119
 H        -2.954653        -2.131972         0.653189
 H        -2.023154        -2.261492         2.073418
 H        -3.656059        -1.298336         2.111899
 H        -1.182614        -0.048776         1.958958
 H        -3.027982         0.955876        -0.115263
 H        -2.471001        -1.523535        -1.110096
 H        -1.173994        -0.660223        -1.903327
 H         0.776742        -2.399826         0.288722
 H        -0.436227         1.973722         0.424214
 H        -0.282368         1.456285        -1.324081
