19
Iteration:  4291
 C        -2.739750        -1.460877         1.598605
 C        -1.684238        -0.487685         1.044236
 C        -1.998640         0.331070        -0.156515
 C        -1.747520        -0.863761        -1.035136
 C        -0.677239        -1.198907         0.095787
 O        -0.133039        -2.450075         0.452823
 C         0.291444        -0.008379         0.087426
 O         1.376634        -0.006909         0.631939
 C        -0.619640         1.220073        -0.313716
 H        -2.917424        -2.356234         1.104370
 H        -2.343693        -2.026941         2.511473
 H        -3.675767        -0.878493         1.799627
 H        -1.481815        -0.012308         1.944292
 H        -2.925996         0.886134        -0.538815
 H        -2.690359        -1.272899        -0.989783
 H        -1.438021        -0.662642        -1.965934
 H         0.627073        -2.312026         0.993699
 H        -0.559807         2.173775         0.396419
 H        -0.520236         1.506498        -1.315191
