19
Iteration:  4075
 C        -2.987007        -1.450661         1.561607
 C        -1.794302        -0.629274         1.178778
 C        -1.982018         0.356288        -0.190899
 C        -1.614472        -0.828971        -0.959675
 C        -0.676935        -1.217666         0.263535
 O        -0.153146        -2.486305         0.470664
 C         0.305061         0.035439         0.214133
 O         1.529400         0.091171         0.308360
 C        -0.615359         1.236381        -0.255741
 H        -3.191261        -2.126636         0.752525
 H        -2.921548        -2.034191         2.535138
 H        -3.810559        -0.817931         1.849627
 H        -1.317131        -0.120940         2.042377
 H        -3.086102         0.627884        -0.352387
 H        -2.425367        -1.530482        -1.140345
 H        -1.016119        -0.630813        -1.971782
 H         0.759992        -2.577461         0.050391
 H        -0.433678         2.054378         0.391772
 H        -0.332549         1.576733        -1.215483
