19
Iteration:  3586
 C        -3.007129        -1.433733         1.344807
 C        -1.838367        -0.499377         1.131796
 C        -1.990390         0.346435        -0.074759
 C        -1.497347        -0.905827        -0.985797
 C        -0.712483        -1.189665         0.384515
 O        -0.010643        -2.394214         0.716670
 C         0.257797         0.013739         0.146944
 O         1.473429        -0.052495         0.000249
 C        -0.673146         1.199515        -0.095252
 H        -3.522731        -1.491234         0.357863
 H        -2.625609        -2.436762         1.607755
 H        -3.808722        -1.252395         2.045322
 H        -1.566577        -0.145378         2.113504
 H        -2.878599         1.006166        -0.106727
 H        -2.499104        -1.404270        -1.194672
 H        -1.057699        -0.670404        -2.009570
 H         0.908884        -2.288211         0.912559
 H        -0.537518         1.819645         0.754496
 H        -0.415835         1.749929        -1.035654
