19
Iteration:  1448charge 0 multiplicity 1
 C        -2.999156        -1.329808         1.705295
 C        -1.788199        -0.528656         1.088924
 C        -1.960776         0.384955        -0.167105
 C        -1.608035        -0.927346        -1.001369
 C        -0.650084        -1.206754         0.113363
 O         0.009967        -2.423331         0.273540
 C         0.270122         0.019467         0.082863
 O         1.442452        -0.137651         0.420068
 C        -0.728370         1.202725        -0.035696
 H        -3.576168        -1.901790         0.892000
 H        -2.548716        -1.885181         2.524010
 H        -3.577417        -0.533001         2.209925
 H        -1.262521         0.084634         1.894328
 H        -3.003531         0.781702        -0.208692
 H        -2.465683        -1.590871        -0.948357
 H        -1.142279        -0.698826        -1.957796
 H         0.924178        -2.171357         0.348324
 H        -0.624159         1.929224         0.848246
 H        -0.521771         1.691482        -1.000884
