19
Iteration:   277
 C        -3.148769        -1.428094         1.457988
 C        -1.783761        -0.673410         1.263364
 C        -1.950283         0.425317        -0.016768
 C        -1.651601        -0.779167        -0.888371
 C        -0.627792        -1.192989         0.257362
 O        -0.010650        -2.500929         0.449111
 C         0.272233         0.014000         0.206779
 O         1.493509         0.040985         0.156739
 C        -0.566086         1.211114        -0.210186
 H        -3.501980        -1.685653         0.455773
 H        -3.007085        -2.445975         1.913524
 H        -3.950956        -0.830212         1.973811
 H        -1.273214        -0.512374         2.286957
 H        -2.901675         1.073935        -0.087300
 H        -2.384885        -1.722992        -0.969297
 H        -1.188383        -0.588465        -1.938062
 H         0.745948        -2.426673        -0.131386
 H        -0.448636         2.123630         0.365486
 H        -0.470939         1.567557        -1.258304
