19
Iteration:  4356charge 0 multiplicity 1
 C        -3.075093        -1.409301         1.575395
 C        -1.835988        -0.533149         1.139187
 C        -1.986417         0.328336        -0.169577
 C        -1.544338        -0.917885        -1.040270
 C        -0.607748        -1.186033         0.201345
 O        -0.064036        -2.434870         0.464407
 C         0.276966         0.012702         0.164236
 O         1.500879         0.032948         0.256677
 C        -0.639283         1.183063        -0.123660
 H        -3.582633        -1.946104         0.802899
 H        -2.890401        -2.124079         2.504822
 H        -3.734085        -0.602004         2.108132
 H        -1.306662        -0.033442         1.991276
 H        -3.039722         0.688287        -0.418337
 H        -2.328049        -1.611735        -1.023212
 H        -1.146165        -0.829847        -2.034191
 H         0.805084        -2.347241         0.815703
 H        -0.570782         1.847685         0.842121
 H        -0.384146         1.770410        -0.952159
