19
Iteration:  3757
 C        -2.802133        -1.356053         1.644494
 C        -1.727899        -0.434716         1.131977
 C        -2.037281         0.336797        -0.238178
 C        -1.688248        -0.941046        -1.082493
 C        -0.717535        -1.230748         0.069159
 O        -0.039749        -2.396525         0.398296
 C         0.272812        -0.023051         0.094886
 O         1.405166        -0.035171         0.591115
 C        -0.628420         1.147885        -0.206761
 H        -3.250111        -1.979101         0.921270
 H        -2.467682        -2.213547         2.311665
 H        -3.582641        -0.755814         2.142108
 H        -1.236025         0.131778         2.004632
 H        -2.973026         0.943331        -0.419478
 H        -2.549275        -1.671357        -0.887620
 H        -1.504864        -0.781865        -2.067249
 H         0.711877        -2.178976         1.034145
 H        -0.440176         2.033367         0.526939
 H        -0.743225         1.502501        -1.213734
