19
Iteration:   106
 C        -2.974572        -1.406670         1.788621
 C        -1.853488        -0.619862         1.143523
 C        -1.937278         0.321786        -0.192432
 C        -1.604009        -0.815515        -0.984876
 C        -0.756591        -1.174174         0.171715
 O        -0.023665        -2.356005         0.164558
 C         0.299226         0.089350         0.230371
 O         1.493399        -0.197786         0.376830
 C        -0.635017         1.215491        -0.121548
 H        -2.982612        -2.497073         1.654659
 H        -2.899539        -1.123670         2.845790
 H        -4.072803        -1.108045         1.639525
 H        -1.337968        -0.029240         1.924956
 H        -2.920785         0.829659        -0.458097
 H        -2.493765        -1.488433        -1.139080
 H        -1.258699        -0.809634        -2.007773
 H         0.889972        -1.976987         0.082171
 H        -0.656126         2.139969         0.569663
 H        -0.373553         1.705114        -1.062761
