19
Iteration:   983charge 0 multiplicity 1
 C        -2.923603        -1.376027         1.570155
 C        -1.714239        -0.556063         1.110750
 C        -1.974282         0.374500        -0.088875
 C        -1.655412        -0.910323        -0.929368
 C        -0.701599        -1.205080         0.232041
 O        -0.090179        -2.440847         0.297920
 C         0.281763        -0.051085         0.146325
 O         1.487999         0.018445         0.327998
 C        -0.678621         1.200961        -0.110293
 H        -3.557815        -1.901110         0.793102
 H        -2.663710        -2.016683         2.449759
 H        -3.844107        -0.753600         1.886243
 H        -1.404039        -0.047255         2.027392
 H        -2.917223         0.954525        -0.180952
 H        -2.377951        -1.680755        -0.871155
 H        -1.130013        -0.797052        -1.886170
 H         0.870619        -2.151306         0.104396
 H        -0.675484         1.948748         0.749846
 H        -0.405458         1.591623        -1.118305
