19
Iteration:    53charge 0 multiplicity 1
 C        -2.818014        -1.524297         1.550399
 C        -1.679299        -0.580964         1.128696
 C        -2.016042         0.465430        -0.052011
 C        -1.744403        -0.832915        -1.018146
 C        -0.689751        -1.153749         0.191326
 O        -0.288736        -2.486251         0.353745
 C         0.347057         0.018523         0.105155
 O         1.545642         0.019184         0.366509
 C        -0.613953         1.216495        -0.161180
 H        -2.556827        -2.585615         1.640675
 H        -3.137562        -1.371650         2.579785
 H        -3.732976        -1.532285         0.897790
 H        -1.078818        -0.169465         1.986680
 H        -2.941013         1.123063         0.040002
 H        -2.498351        -1.671802        -0.935305
 H        -1.337657        -0.633914        -2.031737
 H         0.560546        -2.399874         0.922922
 H        -0.424603         1.899720         0.746937
 H        -0.527459         1.629317        -1.168715
