19
Iteration:  1344charge 0 multiplicity 1
 C        -2.976088        -1.578613         1.497037
 C        -1.809106        -0.563575         1.198978
 C        -1.963954         0.465460        -0.060524
 C        -1.599598        -0.661051        -1.006107
 C        -0.698152        -1.151094         0.312291
 O        -0.019316        -2.383173         0.587768
 C         0.253253        -0.018490         0.112110
 O         1.435679        -0.208661         0.128291
 C        -0.636383         1.248432        -0.145176
 H        -3.210567        -2.136650         0.526282
 H        -2.614313        -2.447160         2.062802
 H        -3.943590        -1.175294         1.952622
 H        -1.446847        -0.081992         2.067177
 H        -2.901909         0.976376        -0.311495
 H        -2.248397        -1.405500        -1.497792
 H        -1.052270        -0.496112        -1.942448
 H         0.930021        -2.159102         0.500786
 H        -0.615139         2.028187         0.602700
 H        -0.533462         1.585773        -1.173652
