19
Iteration:  3672
 C        -2.923747        -1.412150         1.535811
 C        -1.766636        -0.509770         1.114429
 C        -1.962352         0.324551        -0.206478
 C        -1.547405        -0.996242        -0.998896
 C        -0.629695        -1.200194         0.253747
 O        -0.167532        -2.458553         0.468383
 C         0.297080         0.038839         0.130909
 O         1.496315        -0.000644         0.252439
 C        -0.728414         1.244570        -0.042413
 H        -3.391582        -2.018026         0.764648
 H        -2.619867        -1.853103         2.565607
 H        -3.834891        -0.810083         1.809858
 H        -1.238333         0.084516         1.863385
 H        -2.912528         0.892965        -0.385100
 H        -2.482712        -1.517706        -1.340742
 H        -1.106894        -0.711991        -1.945404
 H         0.635984        -2.312191         1.043678
 H        -0.716889         1.967312         0.755049
 H        -0.590732         1.857913        -0.971805
