19
Iteration:   748charge 0 multiplicity 1
 C        -2.982331        -1.508642         1.507810
 C        -1.815047        -0.580633         1.182678
 C        -1.945818         0.400879        -0.097939
 C        -1.648152        -0.855244        -0.926481
 C        -0.599013        -1.127029         0.297410
 O        -0.150222        -2.446062         0.385587
 C         0.321422         0.041512         0.178602
 O         1.501329        -0.069173         0.153308
 C        -0.622960         1.269902        -0.113087
 H        -3.211363        -1.997615         0.562276
 H        -2.544078        -2.043084         2.271571
 H        -3.854565        -1.002575         1.975222
 H        -1.736071        -0.070994         2.142059
 H        -2.952115         0.895542        -0.260064
 H        -2.507035        -1.535072        -0.941227
 H        -1.012977        -0.734190        -1.798688
 H         0.791033        -2.358341         0.682262
 H        -0.735775         1.982227         0.667288
 H        -0.483660         1.532212        -1.136052
