19
Iteration:  3938charge 0 multiplicity 1
 C        -2.974485        -1.510153         1.460547
 C        -1.770033        -0.442278         1.105579
 C        -2.001560         0.329935        -0.176744
 C        -1.645679        -0.891046        -1.017583
 C        -0.644504        -1.171289         0.310101
 O        -0.162918        -2.462414         0.581528
 C         0.382500         0.060428         0.064965
 O         1.593005         0.033206         0.235424
 C        -0.719619         1.158133        -0.094192
 H        -3.123236        -2.135130         0.495161
 H        -2.768145        -2.089589         2.326312
 H        -3.797914        -0.850098         1.819999
 H        -1.645652         0.041031         2.106813
 H        -2.961444         0.751913        -0.314207
 H        -2.518266        -1.547805        -0.851724
 H        -1.412370        -0.890070        -2.060278
 H         0.782573        -2.234445         0.856131
 H        -0.597476         1.733896         0.823521
 H        -0.487420         1.798091        -0.966502
