19
Iteration:   833charge 0 multiplicity 1
 C        -2.887285        -1.471351         1.637450
 C        -1.869349        -0.499368         1.126322
 C        -2.001284         0.360397        -0.158135
 C        -1.481252        -0.805772        -1.000372
 C        -0.729566        -1.174386         0.245466
 O        -0.143844        -2.405449         0.440920
 C         0.268277        -0.007137         0.136590
 O         1.510143        -0.064529         0.132423
 C        -0.662617         1.148160        -0.001325
 H        -3.262402        -1.894664         0.704058
 H        -2.712574        -2.446713         2.135860
 H        -3.797738        -1.055213         2.141652
 H        -1.550603         0.181441         1.963112
 H        -2.919645         0.896255        -0.471113
 H        -2.272365        -1.579254        -1.121085
 H        -0.884895        -0.612716        -1.967656
 H         0.867574        -2.245523         0.700169
 H        -0.592307         1.822483         0.831987
 H        -0.514644         1.958485        -0.786771
