19
Iteration:   134
 C        -2.997812        -1.376495         1.551577
 C        -1.808771        -0.463146         1.242459
 C        -2.013265         0.366118         0.011760
 C        -1.709658        -0.814004        -0.888429
 C        -0.690106        -1.277932         0.105315
 O         0.024081        -2.454402         0.211388
 C         0.308430        -0.008538         0.094689
 O         1.481379        -0.026529         0.366773
 C        -0.608300         1.106172        -0.160481
 H        -3.028951        -2.399184         1.133759
 H        -2.943435        -1.487398         2.671829
 H        -3.884254        -0.801549         1.352490
 H        -1.406235         0.060646         2.130055
 H        -2.968853         0.885755        -0.048054
 H        -2.541678        -1.588816        -1.008144
 H        -1.199619        -0.545045        -1.849748
 H         0.835285        -2.220592         0.677552
 H        -0.393102         1.913059         0.503068
 H        -0.453962         1.600444        -1.162247
