19
Iteration:  3782
 C        -2.804409        -1.459511         1.661683
 C        -1.807559        -0.462573         1.048978
 C        -1.966888         0.336784        -0.283353
 C        -1.604790        -0.891841        -1.021434
 C        -0.695149        -1.199485         0.115645
 O        -0.186873        -2.457077         0.494827
 C         0.246429         0.061284         0.158410
 O         1.433044         0.003958         0.457929
 C        -0.613604         1.178912        -0.194006
 H        -3.539474        -2.191953         1.197193
 H        -2.117171        -2.299708         2.153811
 H        -3.328671        -0.928851         2.503623
 H        -1.532753         0.247159         1.958995
 H        -2.841296         0.971734        -0.456874
 H        -2.425995        -1.571171        -1.046386
 H        -1.049965        -0.847520        -1.992680
 H         0.828949        -2.415028         0.480887
 H        -0.750711         1.995766         0.507449
 H        -0.371103         1.641335        -1.239456
