19
Iteration:   841charge 0 multiplicity 1
 C        -2.901528        -1.506349         1.585335
 C        -1.854736        -0.493330         1.159643
 C        -2.015018         0.410841        -0.142385
 C        -1.517316        -0.772298        -1.026034
 C        -0.689198        -1.185546         0.262737
 O        -0.154868        -2.426621         0.444519
 C         0.294596        -0.023074         0.175152
 O         1.496939        -0.051235         0.145954
 C        -0.699089         1.177072        -0.094337
 H        -3.333624        -1.940453         0.715973
 H        -2.328727        -2.271119         2.260741
 H        -3.739638        -1.222581         2.238545
 H        -1.347274         0.046562         1.975377
 H        -2.912575         0.852887        -0.479350
 H        -2.237348        -1.503118        -1.073323
 H        -0.904469        -0.516447        -1.858355
 H         0.707230        -2.568098         0.927619
 H        -0.654202         1.767952         0.874513
 H        -0.275439         1.827508        -0.938343
