19
Iteration:  1249charge 0 multiplicity 1
 C        -3.007356        -1.518033         1.586804
 C        -1.741445        -0.569828         1.194821
 C        -1.978747         0.355725        -0.039852
 C        -1.687736        -0.763031        -0.945832
 C        -0.673978        -1.160456         0.158433
 O        -0.172463        -2.436076         0.290352
 C         0.360793        -0.039300         0.146309
 O         1.552290         0.082387         0.418296
 C        -0.648403         1.166880        -0.256301
 H        -3.182956        -2.012502         0.719574
 H        -2.677996        -2.351097         2.259304
 H        -3.859714        -0.886262         1.974293
 H        -1.071906         0.044224         1.906694
 H        -2.952360         0.815861         0.009233
 H        -2.436373        -1.529683        -1.126934
 H        -1.366096        -0.773350        -1.944779
 H         0.619252        -2.371239         0.969942
 H        -0.249584         2.021715         0.284011
 H        -0.512194         1.157476        -1.381368
