19
Iteration:  3563
 C        -3.131062        -1.402781         1.496632
 C        -1.913065        -0.565733         1.153105
 C        -1.950374         0.290524        -0.179661
 C        -1.437551        -0.869943        -0.943954
 C        -0.630324        -1.163242         0.291862
 O        -0.038940        -2.390985         0.580169
 C         0.305861         0.004866         0.111115
 O         1.522907        -0.013914         0.088590
 C        -0.711903         1.173110        -0.094155
 H        -3.860083        -1.571559         0.728196
 H        -2.856270        -2.353692         2.025085
 H        -3.577939        -0.877705         2.332779
 H        -1.697057        -0.052820         2.077590
 H        -2.785768         0.986668        -0.278136
 H        -2.178008        -1.737594        -1.102488
 H        -0.990571        -0.624009        -1.929366
 H         0.930211        -2.273722         0.830115
 H        -0.875439         1.794855         0.725526
 H        -0.361203         1.699033        -0.993712
