19
Iteration:   865charge 0 multiplicity 1
 C        -2.804231        -1.592685         1.531874
 C        -1.805639        -0.569029         1.118642
 C        -1.968989         0.404394        -0.045341
 C        -1.616354        -0.820937        -0.981136
 C        -0.727589        -1.173467         0.196747
 O        -0.263776        -2.462428         0.469495
 C         0.331782         0.087286         0.112544
 O         1.525646         0.010653         0.255979
 C        -0.617545         1.229355        -0.132683
 H        -3.336368        -1.883372         0.643615
 H        -2.440199        -2.422917         2.258819
 H        -3.667324        -1.120976         2.057737
 H        -1.407774         0.115703         1.940946
 H        -2.897271         0.980719        -0.245810
 H        -2.441733        -1.515961        -0.945766
 H        -1.100966        -0.683617        -1.968808
 H         0.465774        -2.512567         1.020275
 H        -0.457315         2.165245         0.448510
 H        -0.539939         1.442112        -1.285505
