19
Iteration:  1828
 C        -2.889698        -1.425871         1.680121
 C        -1.766645        -0.595084         1.121395
 C        -1.990821         0.334994        -0.052246
 C        -1.613447        -0.795378        -1.103395
 C        -0.709214        -1.214774         0.095344
 O        -0.198611        -2.427236         0.390597
 C         0.319570        -0.010105         0.173860
 O         1.533939         0.009877         0.345267
 C        -0.652836         1.168813        -0.123754
 H        -3.448343        -1.802716         0.881746
 H        -2.584792        -2.364777         2.163349
 H        -3.669267        -0.977857         2.349508
 H        -1.194147         0.100088         1.839702
 H        -2.930778         0.898998        -0.170278
 H        -2.385388        -1.563838        -1.383441
 H        -1.133111        -0.418403        -2.049456
 H         0.753672        -2.310067         0.784409
 H        -0.915617         2.024145         0.571017
 H        -0.354975         1.651772        -1.116399
