19
Iteration:   709charge 0 multiplicity 1
 C        -2.774729        -1.494310         1.691473
 C        -1.783624        -0.542703         1.064423
 C        -1.968318         0.371229        -0.164373
 C        -1.609497        -0.746478        -1.097292
 C        -0.690051        -1.225233         0.124269
 O        -0.233206        -2.412011         0.524224
 C         0.264287         0.032583         0.105569
 O         1.443978        -0.060256         0.319189
 C        -0.655853         1.189044        -0.097534
 H        -3.273940        -2.283076         1.015102
 H        -2.061834        -2.192096         2.292073
 H        -3.648933        -1.064433         2.227864
 H        -1.246527         0.043228         1.921628
 H        -2.882310         0.975787        -0.217734
 H        -2.369807        -1.457416        -1.564382
 H        -1.090233        -0.468004        -2.052428
 H         0.669852        -2.584613         0.384917
 H        -0.646208         1.681396         0.971617
 H        -0.352235         2.009887        -0.851968
