19
Iteration:  1501charge 0 multiplicity 1
 C        -2.824023        -1.526005         1.579374
 C        -1.734831        -0.560506         1.239616
 C        -1.955674         0.436578        -0.040889
 C        -1.613558        -0.776244        -0.919694
 C        -0.660932        -1.139304         0.125928
 O        -0.188194        -2.461733         0.342539
 C         0.257878         0.034527         0.095723
 O         1.389452        -0.068811         0.532414
 C        -0.638631         1.186106        -0.391795
 H        -3.086546        -2.192493         0.820057
 H        -2.452909        -2.093320         2.434386
 H        -3.735654        -0.889795         1.566683
 H        -1.197887        -0.122825         2.039023
 H        -2.901501         1.013759         0.001708
 H        -2.269205        -1.653813        -1.002121
 H        -1.451637        -0.523407        -1.962190
 H         0.794694        -2.427859         0.325035
 H        -0.468950         2.148962         0.114128
 H        -0.553679         1.480238        -1.446240
