19
Iteration:    58
 C        -2.802865        -1.503505         1.588946
 C        -1.692013        -0.552367         1.117565
 C        -2.013393         0.450103        -0.061708
 C        -1.760599        -0.814133        -1.007910
 C        -0.658812        -1.216353         0.121905
 O        -0.244076        -2.482248         0.376431
 C         0.352624        -0.030786         0.085578
 O         1.533375         0.011096         0.379873
 C        -0.651657         1.224655        -0.122757
 H        -2.564227        -2.583359         1.514784
 H        -3.136610        -1.190757         2.599535
 H        -3.710506        -1.397023         1.021369
 H        -1.262674        -0.005183         1.961581
 H        -2.942424         0.957945        -0.006658
 H        -2.554150        -1.506777        -1.301341
 H        -1.338136        -0.565762        -1.988928
 H         0.514784        -2.519771         0.935388
 H        -0.553663         1.908472         0.673971
 H        -0.494632         1.861179        -1.033354
