19
Iteration:  2199charge 0 multiplicity 1
 C        -2.919635        -1.569195         1.485003
 C        -1.843063        -0.498293         1.249020
 C        -2.008563         0.395178        -0.078819
 C        -1.569148        -0.845853        -0.910484
 C        -0.684056        -1.126036         0.330853
 O        -0.261456        -2.470842         0.409512
 C         0.333096         0.024197         0.113090
 O         1.549289         0.022359         0.011857
 C        -0.571979         1.168786        -0.001874
 H        -3.782561        -1.590690         0.791664
 H        -2.478557        -2.525069         1.688400
 H        -3.458134        -1.316126         2.466602
 H        -1.440726         0.042009         2.171575
 H        -2.924516         0.974720        -0.369302
 H        -2.303802        -1.659395        -1.081680
 H        -1.077084        -0.629054        -1.872779
 H         0.625535        -2.290433         0.595757
 H        -0.490943         1.973784         0.697316
 H        -0.251632         1.724631        -0.937640
