19
Iteration:  3156
 C        -2.776695        -1.381548         1.714504
 C        -1.704116        -0.525175         1.144542
 C        -1.942424         0.356890        -0.143362
 C        -1.621795        -0.936461        -1.155724
 C        -0.613889        -1.228593         0.028845
 O        -0.158656        -2.464612         0.415021
 C         0.231954         0.060073         0.122760
 O         1.330803        -0.007759         0.574883
 C        -0.700181         1.190989        -0.274859
 H        -3.037708        -2.167927         1.077717
 H        -2.249928        -1.832159         2.646843
 H        -3.700656        -0.745732         1.932904
 H        -1.133355         0.054913         1.925334
 H        -2.873038         0.978014        -0.300046
 H        -2.353370        -1.737258        -1.253391
 H        -1.191986        -0.659847        -2.162924
 H         0.413991        -2.179205         1.129859
 H        -0.604129         2.080985         0.396507
 H        -0.638931         1.442002        -1.329423
