19
Iteration:  1498
 C        -2.838670        -1.524219         1.563741
 C        -1.736758        -0.558572         1.242643
 C        -1.974200         0.436811        -0.018160
 C        -1.625388        -0.762652        -0.922632
 C        -0.640943        -1.157782         0.128192
 O        -0.165445        -2.449159         0.334459
 C         0.257613         0.015111         0.102230
 O         1.387764        -0.075687         0.539214
 C        -0.640944         1.189860        -0.402982
 H        -3.075698        -2.171319         0.759973
 H        -2.417894        -2.073184         2.458810
 H        -3.740675        -0.821237         1.568738
 H        -1.224431        -0.120237         2.088058
 H        -2.874389         1.074446        -0.007576
 H        -2.386384        -1.591350        -0.870782
 H        -1.412109        -0.597105        -2.014962
 H         0.871646        -2.377022         0.316758
 H        -0.434366         2.108848         0.069726
 H        -0.611522         1.414902        -1.514813
