19
Iteration:  3184charge 0 multiplicity 1
 C        -2.833698        -1.405975         1.745350
 C        -1.865487        -0.428724         1.184264
 C        -1.965532         0.362837        -0.354040
 C        -1.736861        -0.941187        -1.008844
 C        -0.628322        -1.200022         0.180027
 O        -0.057498        -2.381366         0.272558
 C         0.271505        -0.027973         0.158304
 O         1.449034        -0.031829         0.597608
 C        -0.658353         1.120637        -0.245386
 H        -2.754165        -2.384380         1.151788
 H        -2.440627        -1.614829         2.679854
 H        -3.822947        -0.988864         1.814002
 H        -1.513406         0.322543         1.870946
 H        -2.812419         0.922133        -0.711884
 H        -2.534736        -1.724738        -0.920004
 H        -1.329580        -0.946606        -2.003878
 H         0.850569        -2.096215         0.172037
 H        -0.675766         1.933370         0.482818
 H        -0.367548         1.546273        -1.228574
