19
Iteration:  3657charge 0 multiplicity 1
 C        -2.885287        -1.435383         1.532670
 C        -1.799583        -0.549772         1.107077
 C        -1.938090         0.376126        -0.152604
 C        -1.477572        -0.860481        -1.068048
 C        -0.721601        -1.169950         0.218010
 O        -0.169014        -2.447410         0.588243
 C         0.231062         0.036366         0.206429
 O         1.438715        -0.016758         0.133843
 C        -0.662265         1.205456        -0.093719
 H        -3.260809        -2.041099         0.616684
 H        -2.508158        -2.122676         2.347743
 H        -3.823912        -0.963204         1.971386
 H        -1.588416         0.000176         2.110837
 H        -2.928097         0.780445        -0.332770
 H        -2.136115        -1.731794        -1.012584
 H        -0.902156        -0.857939        -1.991617
 H         0.766360        -2.409686         0.951851
 H        -0.799509         1.910194         0.843168
 H        -0.233112         1.750466        -0.921179
