19
Iteration:   836charge 0 multiplicity 1
 C        -2.880533        -1.476724         1.630383
 C        -1.867919        -0.497015         1.132514
 C        -2.007262         0.377169        -0.148555
 C        -1.483186        -0.781809        -1.011813
 C        -0.732563        -1.188773         0.245789
 O        -0.142947        -2.406717         0.443504
 C         0.273399        -0.012540         0.151025
 O         1.511351        -0.059543         0.136050
 C        -0.675747         1.149496        -0.042389
 H        -3.270826        -1.906859         0.640250
 H        -2.667839        -2.378932         2.179580
 H        -3.783552        -1.190258         2.196286
 H        -1.486094         0.145235         1.941562
 H        -2.952702         0.877937        -0.515652
 H        -2.307265        -1.602749        -1.006938
 H        -0.846833        -0.547604        -1.911533
 H         0.808667        -2.414199         0.776607
 H        -0.598936         1.831938         0.820248
 H        -0.439726         1.921534        -0.742708
