19
Iteration:  1471
 C        -2.919078        -1.397727         1.565633
 C        -1.777423        -0.519814         1.201852
 C        -1.983134         0.379880        -0.098945
 C        -1.865760        -0.875622        -0.950243
 C        -0.739674        -1.241355         0.123195
 O         0.059947        -2.376973         0.261434
 C         0.277426        -0.019651         0.142239
 O         1.437753        -0.060332         0.504062
 C        -0.544728         1.122824        -0.246654
 H        -3.152462        -1.992437         0.561189
 H        -2.592528        -1.982048         2.401895
 H        -3.723111        -0.747009         1.857464
 H        -1.181878        -0.046711         2.078917
 H        -2.727165         1.206557        -0.021937
 H        -2.651500        -1.637698        -0.843233
 H        -1.577472        -0.582020        -1.955926
 H         0.919859        -1.906141         0.680654
 H        -0.541276         1.998835         0.539777
 H        -0.242167         1.410184        -1.252578
