19
Iteration:  2734
 C        -3.201929        -1.443073         1.471798
 C        -1.901919        -0.578571         1.178495
 C        -1.973667         0.310284        -0.100166
 C        -1.430849        -0.890035        -1.057059
 C        -0.615599        -1.183460         0.415237
 O        -0.058983        -2.449484         0.673253
 C         0.334223         0.124045         0.161408
 O         1.527235         0.062456        -0.006454
 C        -0.598964         1.149624        -0.118953
 H        -4.012982        -1.112451         0.804807
 H        -3.045449        -2.558659         1.302612
 H        -3.634151        -1.511811         2.471291
 H        -1.730236         0.065652         1.966086
 H        -3.019225         0.734831        -0.393416
 H        -2.273006        -1.644587        -1.103939
 H        -1.054496        -0.519026        -2.068636
 H         0.917116        -2.480815         0.727230
 H        -0.533419         1.992166         0.531829
 H        -0.566690         1.478161        -1.171237
