19
Iteration:  3238
 C        -3.045627        -1.347453         1.578353
 C        -1.732594        -0.623991         1.167686
 C        -1.987244         0.308977        -0.055192
 C        -1.634827        -0.921573        -1.037361
 C        -0.635075        -1.233708         0.149588
 O        -0.070711        -2.378653         0.485398
 C         0.297442         0.010478         0.095252
 O         1.501064         0.039361         0.310922
 C        -0.668956         1.180389        -0.226257
 H        -3.287986        -2.070581         0.688102
 H        -3.038955        -1.871000         2.491789
 H        -3.822206        -0.618486         1.795633
 H        -1.379566        -0.121851         2.037910
 H        -2.946355         0.730351         0.096542
 H        -2.347076        -1.757619        -1.191359
 H        -1.127530        -0.807503        -1.962961
 H         0.768251        -2.174936         0.978326
 H        -0.542237         1.981911         0.536794
 H        -0.410698         1.774113        -1.139168
