19
Iteration:  2898
 C        -2.952484        -1.294271         1.611690
 C        -1.788162        -0.556590         1.161062
 C        -1.969317         0.322745        -0.131124
 C        -1.621517        -0.961141        -1.004256
 C        -0.600001        -1.219665         0.108192
 O        -0.012765        -2.427380         0.400590
 C         0.265082         0.040245         0.118356
 O         1.398104         0.079115         0.623984
 C        -0.671066         1.080340        -0.447888
 H        -3.292933        -0.929016         2.611365
 H        -3.812905        -1.444515         0.981574
 H        -2.604277        -2.297255         1.601538
 H        -1.484621        -0.027662         2.079382
 H        -2.978927         0.847287        -0.330803
 H        -2.423900        -1.683303        -0.876790
 H        -1.286005        -0.870689        -2.097400
 H         0.661770        -2.242560         1.174767
 H        -0.518748         1.966591         0.090071
 H        -0.506447         1.428616        -1.474324
