19
Iteration:   984
 C        -2.921682        -1.381337         1.561487
 C        -1.715970        -0.556071         1.112935
 C        -1.970080         0.378777        -0.080631
 C        -1.652045        -0.912673        -0.923223
 C        -0.701951        -1.200952         0.228834
 O        -0.095247        -2.437123         0.300810
 C         0.282067        -0.047588         0.142325
 O         1.491775         0.020142         0.326998
 C        -0.678137         1.197377        -0.114700
 H        -3.568948        -1.876165         0.836997
 H        -2.675182        -2.023334         2.454770
 H        -3.829205        -0.781152         1.847412
 H        -1.410973        -0.055038         2.027306
 H        -2.922716         0.978406        -0.151571
 H        -2.381693        -1.688726        -0.902054
 H        -1.123977        -0.792291        -1.859891
 H         0.857472        -2.203043         0.119004
 H        -0.705632         1.911506         0.744317
 H        -0.421471         1.583162        -1.147958
