19
Iteration:  3395charge 0 multiplicity 1
 C        -3.042089        -1.333703         1.584154
 C        -1.816383        -0.550751         1.098163
 C        -2.053675         0.348384        -0.191995
 C        -1.554570        -0.890988        -0.962250
 C        -0.586775        -1.211061         0.269807
 O         0.003852        -2.431011         0.406532
 C         0.242943        -0.023742         0.182817
 O         1.455619         0.038277         0.265523
 C        -0.656364         1.105457        -0.128505
 H        -3.678064        -1.820850         0.790726
 H        -2.790035        -2.153116         2.417316
 H        -3.679269        -0.585042         2.174492
 H        -1.592291         0.163615         1.920897
 H        -3.038943         0.880277        -0.422778
 H        -2.215545        -1.726185        -1.179070
 H        -0.928145        -0.672493        -1.879061
 H         0.858552        -2.352849         0.810931
 H        -0.394139         1.898850         0.630648
 H        -0.423339         1.440657        -1.106359
