19
Iteration:  3859
 C        -3.086808        -1.402899         1.399992
 C        -1.897436        -0.552330         1.139007
 C        -1.968368         0.320163        -0.101932
 C        -1.588496        -0.901507        -0.950097
 C        -0.657472        -1.204912         0.341848
 O         0.010510        -2.305962         0.633039
 C         0.306159        -0.003572         0.067100
 O         1.522358        -0.061388         0.047974
 C        -0.633512         1.158590        -0.002125
 H        -3.350957        -1.993752         0.430020
 H        -2.772461        -2.163116         2.216237
 H        -4.028488        -0.816793         1.465527
 H        -1.801441         0.003058         2.171312
 H        -2.791466         0.839816        -0.560425
 H        -2.359944        -1.575270        -1.070883
 H        -1.175728        -0.755478        -1.952416
 H         0.941536        -2.172970         0.766869
 H        -0.602012         1.733021         0.925417
 H        -0.402038         1.929643        -0.871824
