19
Iteration:  2158charge 0 multiplicity 1
 C        -2.932420        -1.560140         1.626552
 C        -1.764616        -0.597698         1.067825
 C        -2.038099         0.457367        -0.085627
 C        -1.650393        -0.751364        -1.026840
 C        -0.673820        -1.161034         0.147837
 O        -0.076794        -2.362860         0.551634
 C         0.301127         0.013522         0.078906
 O         1.488298        -0.176947         0.146535
 C        -0.654994         1.230303        -0.014618
 H        -3.912792        -1.364884         0.993459
 H        -2.648445        -2.540508         1.491620
 H        -3.149483        -1.323253         2.673894
 H        -1.452706        -0.028206         1.977944
 H        -3.000783         1.021062        -0.074074
 H        -2.536691        -1.352441        -1.285669
 H        -1.115163        -0.482120        -1.948833
 H         0.951688        -2.386437         0.529232
 H        -0.614175         1.859941         0.905122
 H        -0.281145         1.771643        -0.826480
