19
Iteration:  2632
 C        -2.817499        -1.367067         1.604465
 C        -1.798279        -0.496459         1.114975
 C        -1.959456         0.321700        -0.155466
 C        -1.663091        -0.873789        -0.976344
 C        -0.684981        -1.211921         0.143803
 O        -0.071391        -2.458601         0.392769
 C         0.262536         0.070216         0.083151
 O         1.404794        -0.005856         0.519661
 C        -0.661634         1.149439        -0.238019
 H        -2.808989        -2.297884         1.122317
 H        -2.860687        -1.675863         2.696541
 H        -3.850242        -1.017133         1.328286
 H        -1.317972        -0.101367         1.928006
 H        -2.886945         0.791619        -0.302811
 H        -2.528234        -1.547558        -0.939112
 H        -1.256228        -1.020036        -2.023352
 H         0.853809        -2.315061         0.611173
 H        -0.497791         2.011225         0.406792
 H        -0.448799         1.613590        -1.201264
