19
Iteration:  4605charge 0 multiplicity 1
 C        -2.842189        -1.448334         1.693704
 C        -1.841134        -0.494263         1.166964
 C        -2.003817         0.360207        -0.218657
 C        -1.503214        -0.889915        -1.035173
 C        -0.664899        -1.141639         0.140315
 O        -0.160877        -2.472276         0.446846
 C         0.265611        -0.030451         0.115463
 O         1.442416        -0.017656         0.387767
 C        -0.666492         1.233041        -0.216008
 H        -3.529756        -1.824590         0.910450
 H        -2.280489        -2.243254         2.249026
 H        -3.560068        -0.971537         2.436458
 H        -1.338876         0.001651         1.975637
 H        -2.895547         0.843673        -0.712135
 H        -2.380291        -1.567335        -1.082762
 H        -1.130077        -0.626561        -2.009041
 H         0.666973        -2.486843         0.851466
 H        -0.647546         2.020548         0.617119
 H        -0.472806         1.741547        -1.209061
