19
Iteration:  1191
 C        -2.744850        -1.493229         1.744497
 C        -1.761872        -0.521879         1.038030
 C        -2.007161         0.331909        -0.210959
 C        -1.669862        -0.759286        -1.201455
 C        -0.690215        -1.151694         0.073096
 O        -0.130877        -2.363478         0.427347
 C         0.258626        -0.004858         0.176054
 O         1.421766        -0.191011         0.449552
 C        -0.686976         1.196024        -0.102805
 H        -3.503879        -2.154206         1.211195
 H        -2.097264        -1.996617         2.392179
 H        -3.397240        -0.919133         2.473773
 H        -1.412816         0.133850         1.915411
 H        -2.890982         1.012536        -0.187252
 H        -2.530735        -1.446374        -1.238491
 H        -1.051065        -0.420908        -2.037355
 H         0.833770        -2.184784         0.688403
 H        -0.635828         1.965709         0.663661
 H        -0.480635         1.822551        -0.974720
