19
Iteration:  2434charge 0 multiplicity 1
 C        -2.998187        -1.383744         1.471311
 C        -1.795953        -0.557114         1.120288
 C        -1.937130         0.412243        -0.060986
 C        -1.675991        -0.866725        -1.009227
 C        -0.676915        -1.192452         0.200649
 O        -0.009662        -2.477491         0.514965
 C         0.267775         0.017266         0.139593
 O         1.493670        -0.024218         0.092486
 C        -0.664493         1.141084         0.039197
 H        -3.882131        -0.679563         1.607376
 H        -3.228963        -2.207979         0.703389
 H        -2.834000        -1.850693         2.444323
 H        -1.322990        -0.180059         2.140198
 H        -2.821701         1.008895        -0.225254
 H        -2.558411        -1.537664        -0.954632
 H        -1.326160        -0.582881        -2.086257
 H         0.970357        -2.192418         0.692627
 H        -0.638331         1.698842         1.029447
 H        -0.461757         1.813286        -0.747516
