19
Iteration:  2477charge 0 multiplicity 1
 C        -3.069163        -1.496527         1.459265
 C        -1.837235        -0.575837         1.244648
 C        -1.991571         0.343634        -0.022792
 C        -1.472729        -0.755734        -0.961470
 C        -0.609595        -1.198492         0.352107
 O        -0.156911        -2.446478         0.504339
 C         0.324685         0.071913         0.182273
 O         1.525611        -0.059027         0.008252
 C        -0.663231         1.216500        -0.116407
 H        -3.468729        -1.165927         2.489352
 H        -3.811382        -1.419883         0.651441
 H        -2.728386        -2.517425         1.581605
 H        -1.700621         0.059940         2.081276
 H        -2.884841         0.947760        -0.175896
 H        -2.231902        -1.504824        -1.264315
 H        -0.776935        -0.731722        -1.852211
 H         0.747777        -2.428240         0.318623
 H        -0.712206         2.111760         0.570978
 H        -0.637600         1.582717        -1.113121
