19
Iteration:   695charge 0 multiplicity 1
 C        -2.757518        -1.529600         1.682888
 C        -1.716649        -0.600287         1.070133
 C        -2.011658         0.431840        -0.143123
 C        -1.608605        -0.777637        -1.185624
 C        -0.733925        -1.124462         0.101266
 O        -0.223266        -2.488223         0.525032
 C         0.296231        -0.021400         0.126366
 O         1.461576        -0.072814         0.367889
 C        -0.695165         1.266094        -0.103648
 H        -3.386787        -2.160426         0.930517
 H        -2.351307        -2.182308         2.477632
 H        -3.360422        -0.798668         2.317061
 H        -1.254693        -0.077527         1.949070
 H        -3.009310         0.939729        -0.266109
 H        -2.464966        -1.500859        -1.118224
 H        -1.122676        -0.432875        -2.098250
 H         0.825017        -2.371311         0.415029
 H        -0.598509         2.152477         0.719188
 H        -0.502361         1.781613        -1.052349
