19
Iteration:   275charge 0 multiplicity 1
 C        -3.143059        -1.437193         1.462021
 C        -1.795003        -0.643403         1.263716
 C        -1.935572         0.445949        -0.011565
 C        -1.650699        -0.786802        -0.904283
 C        -0.611819        -1.197353         0.251642
 O        -0.016820        -2.491412         0.459382
 C         0.256293        -0.004052         0.200167
 O         1.496048         0.042714         0.149333
 C        -0.578512         1.199429        -0.199886
 H        -3.503655        -1.693640         0.462541
 H        -3.038855        -2.469996         1.870292
 H        -3.914314        -0.900791         1.952403
 H        -1.320389        -0.581278         2.277156
 H        -2.852219         1.121898        -0.070096
 H        -2.375487        -1.696216        -0.972295
 H        -1.200600        -0.636412        -1.859146
 H         0.828195        -2.401955        -0.132234
 H        -0.424244         2.052997         0.403651
 H        -0.495021         1.582000        -1.266969
