19
Iteration:   775
 C        -3.095918        -1.361507         1.434590
 C        -1.795427        -0.616618         1.202232
 C        -1.995065         0.363924         0.082120
 C        -1.632019        -0.824142        -0.925683
 C        -0.648786        -1.203853         0.255754
 O        -0.012777        -2.401966         0.449595
 C         0.273722        -0.029919         0.115490
 O         1.512577        -0.016000         0.113999
 C        -0.612226         1.144419        -0.161474
 H        -3.205415        -1.847804         0.460471
 H        -2.714784        -2.111406         2.241192
 H        -4.042590        -0.832078         1.658801
 H        -1.475310        -0.217028         2.198653
 H        -2.930461         0.884381         0.162218
 H        -2.339224        -1.605596        -1.241002
 H        -1.058896        -0.474517        -1.811625
 H         0.834634        -2.017723         0.736902
 H        -0.534279         1.666949         0.830168
 H        -0.592639         1.686100        -1.153788
