19
Iteration:  3126
 C        -2.800752        -1.376194         1.562903
 C        -1.746647        -0.521528         1.099034
 C        -2.002195         0.392633        -0.147451
 C        -1.635111        -0.950444        -0.987361
 C        -0.644008        -1.165575         0.199496
 O        -0.207354        -2.555388         0.427270
 C         0.280925         0.019829         0.119529
 O         1.464023         0.144226         0.492896
 C        -0.691026         1.126230        -0.306317
 H        -3.515265        -1.739674         0.769000
 H        -2.287723        -2.273630         2.059746
 H        -3.425283        -0.984057         2.361832
 H        -1.399991        -0.019700         1.999778
 H        -2.880835         1.052761        -0.291838
 H        -2.228751        -1.831798        -1.076997
 H        -1.198824        -0.733888        -1.968994
 H         0.682210        -2.564980         0.925944
 H        -0.506021         1.878416         0.491966
 H        -0.619607         1.612491        -1.328975
