19
Iteration:  2595
 C        -2.971212        -1.291124         1.625881
 C        -1.788739        -0.540152         1.139804
 C        -1.980788         0.261397        -0.148895
 C        -1.657809        -0.958206        -1.010031
 C        -0.633425        -1.194617         0.173129
 O        -0.110612        -2.506065         0.279260
 C         0.332522         0.035987         0.137058
 O         1.495682         0.102215         0.460017
 C        -0.636401         1.171041        -0.150744
 H        -2.578909        -2.398263         1.506364
 H        -3.151809        -1.054182         2.603499
 H        -3.839797        -1.103921         1.031805
 H        -1.262066         0.091554         1.958419
 H        -2.932454         0.777993        -0.448332
 H        -2.455870        -1.704235        -0.825017
 H        -1.372879        -0.954503        -2.053533
 H         0.693924        -2.378667         0.845141
 H        -0.756162         1.951052         0.666472
 H        -0.605931         1.537134        -1.169460
