19
Iteration:  1427charge 0 multiplicity 1
 C        -2.955794        -1.306815         1.778664
 C        -1.784183        -0.583941         1.148952
 C        -2.005821         0.319667        -0.197836
 C        -1.455661        -0.818049        -1.160390
 C        -0.675957        -1.198882         0.206466
 O        -0.113314        -2.469837         0.315353
 C         0.241451        -0.010041         0.296248
 O         1.480543        -0.062499         0.242164
 C        -0.742322         1.179337        -0.067112
 H        -3.693246        -1.746415         0.923006
 H        -2.550855        -2.038027         2.476890
 H        -3.536605        -0.530104         2.287886
 H        -1.269389         0.145975         1.867994
 H        -3.056379         0.540228        -0.461866
 H        -2.157618        -1.606429        -1.474571
 H        -0.759106        -0.447359        -1.937608
 H         0.825133        -2.380595         0.375675
 H        -0.783274         1.781862         0.922863
 H        -0.491763         1.929078        -0.825207
