19
Iteration:  2851charge 0 multiplicity 1
 C        -2.887710        -1.376190         1.612189
 C        -1.781755        -0.362979         1.041703
 C        -1.958315         0.246647        -0.227332
 C        -1.549253        -1.005464        -0.985486
 C        -0.564673        -1.180843         0.182812
 O        -0.228490        -2.499626         0.447248
 C         0.289901         0.043615         0.131768
 O         1.428657         0.131216         0.493169
 C        -0.700587         1.133167        -0.232772
 H        -3.299416        -0.969023         2.472036
 H        -3.702039        -1.731555         0.850566
 H        -2.405552        -2.376497         1.810612
 H        -1.274494         0.079076         1.946405
 H        -2.884425         0.773676        -0.424012
 H        -2.162002        -1.927492        -0.906910
 H        -1.159014        -0.764176        -1.966615
 H         0.662198        -2.633034         0.921946
 H        -0.738289         2.056424         0.388276
 H        -0.550000         1.531645        -1.270277
