19
Iteration:  3800charge 0 multiplicity 1
 C        -2.812527        -1.497884         1.675687
 C        -1.839610        -0.502781         1.116639
 C        -2.019975         0.388353        -0.193553
 C        -1.486313        -0.899732        -1.135584
 C        -0.692308        -1.119139         0.294501
 O        -0.261335        -2.399361         0.518182
 C         0.300133        -0.028712         0.148280
 O         1.527967         0.023020         0.374749
 C        -0.732066         1.183864        -0.270521
 H        -3.310311        -1.809052         0.821369
 H        -2.473262        -2.433446         2.060810
 H        -3.528226        -1.210194         2.425318
 H        -1.358075         0.095006         1.828602
 H        -2.994862         0.878182        -0.503497
 H        -2.235292        -1.782968        -1.106439
 H        -0.899425        -0.693060        -1.995850
 H         0.656752        -2.739692         0.294757
 H        -0.544938         1.982274         0.558387
 H        -0.328092         1.567844        -1.149014
