19
Iteration:  1926charge 0 multiplicity 1
 C        -3.029473        -1.413135         1.652129
 C        -1.890917        -0.532492         1.075001
 C        -1.943273         0.394301        -0.158738
 C        -1.469257        -0.921233        -1.049738
 C        -0.726018        -1.214523         0.223269
 O        -0.049634        -2.440549         0.490403
 C         0.282722        -0.005033         0.158241
 O         1.490344        -0.007477         0.049612
 C        -0.679388         1.189343         0.132752
 H        -3.490561        -1.942929         0.859849
 H        -2.941652        -2.250326         2.390996
 H        -3.831248        -0.715537         2.092501
 H        -1.292138         0.042138         1.682863
 H        -2.797826         1.100005        -0.099799
 H        -2.302904        -1.615554        -1.287033
 H        -0.847580        -0.622836        -1.955631
 H         0.732656        -2.251346         0.021121
 H        -0.645449         1.708626         1.103885
 H        -0.301461         1.859222        -0.708632
