19
Iteration:  2452charge 0 multiplicity 1
 C        -3.053328        -1.429887         1.418776
 C        -1.778398        -0.576363         1.179280
 C        -1.989116         0.352123        -0.048878
 C        -1.592653        -0.873945        -0.897360
 C        -0.628307        -1.228262         0.319186
 O        -0.122369        -2.422576         0.481955
 C         0.296315        -0.037504         0.082803
 O         1.525953         0.043585         0.045131
 C        -0.603645         1.226020         0.011933
 H        -3.782527        -0.715031         1.926601
 H        -3.468492        -1.733526         0.524528
 H        -2.891889        -2.290497         2.052040
 H        -1.520681        -0.032334         2.029850
 H        -3.012262         0.803942        -0.168785
 H        -2.411677        -1.568621        -1.070918
 H        -1.147027        -0.834250        -1.847585
 H         0.885691        -2.371181         0.461410
 H        -0.664415         1.891654         0.894212
 H        -0.384300         1.840572        -0.887128
