19
Iteration:  2651charge 0 multiplicity 1
 C        -2.926807        -1.535205         1.657610
 C        -1.765645        -0.528422         1.137885
 C        -1.993222         0.415199        -0.147302
 C        -1.664531        -0.825768        -1.105248
 C        -0.679080        -1.149216         0.238532
 O        -0.073257        -2.339647         0.457197
 C         0.245502        -0.058236         0.158558
 O         1.439472        -0.064547         0.467969
 C        -0.609378         1.173511        -0.341963
 H        -2.993030        -2.546433         0.993493
 H        -2.524648        -1.914356         2.565609
 H        -3.850857        -0.981705         1.808757
 H        -1.326101         0.060883         2.111897
 H        -2.935667         0.934986        -0.294386
 H        -2.252381        -1.758937        -1.224090
 H        -1.145791        -0.530965        -2.045497
 H         0.868544        -2.216339         0.580693
 H        -0.596868         2.244596         0.108020
 H        -0.522954         1.387869        -1.436371
