19
Iteration:  2153charge 0 multiplicity 1
 C        -2.954975        -1.555068         1.624244
 C        -1.813304        -0.586044         1.110755
 C        -1.993129         0.443438        -0.073722
 C        -1.688382        -0.730344        -1.063408
 C        -0.674967        -1.177832         0.144847
 O        -0.056563        -2.329719         0.541276
 C         0.296186        -0.021621         0.109473
 O         1.503488        -0.160656         0.161368
 C        -0.663046         1.204774        -0.047349
 H        -3.809379        -1.319839         1.076776
 H        -2.607456        -2.667433         1.515846
 H        -3.256437        -1.386510         2.682042
 H        -1.284651        -0.090263         1.990976
 H        -2.892658         1.047821        -0.035432
 H        -2.483054        -1.446236        -1.299261
 H        -1.084264        -0.552051        -1.972646
 H         0.860771        -2.355044         0.380236
 H        -0.461425         1.855236         0.807287
 H        -0.369115         1.943807        -0.909394
