19
Iteration:  3699charge 0 multiplicity 1
 C        -3.033615        -1.356669         1.615606
 C        -1.817369        -0.469012         1.166047
 C        -1.971731         0.317808        -0.124244
 C        -1.640999        -0.968845        -0.989618
 C        -0.587293        -1.196275         0.183990
 O        -0.072955        -2.452161         0.312479
 C         0.289878        -0.024363         0.188427
 O         1.494145         0.084464         0.408770
 C        -0.629022         1.098724        -0.240465
 H        -3.398209        -2.103802         0.899874
 H        -2.739781        -1.635191         2.562791
 H        -3.985601        -0.893942         1.826043
 H        -1.302519         0.064659         1.965897
 H        -2.792519         1.008696        -0.201223
 H        -2.356036        -1.780653        -1.010155
 H        -1.373930        -0.708465        -2.091908
 H         0.849973        -2.326605         0.696603
 H        -0.546565         1.916377         0.526084
 H        -0.543074         1.637561        -1.172142
