19
Iteration:  4755charge 0 multiplicity 1
 C        -2.922013        -1.451222         1.577323
 C        -1.807663        -0.522323         1.113868
 C        -2.012890         0.297972        -0.134855
 C        -1.540092        -0.878686        -0.993119
 C        -0.689549        -1.146856         0.305854
 O        -0.142712        -2.414816         0.528953
 C         0.291661         0.037839         0.098500
 O         1.508755        -0.024582         0.244062
 C        -0.693836         1.184003        -0.159735
 H        -3.380166        -1.964975         0.625487
 H        -2.805034        -2.316072         2.221952
 H        -3.630500        -0.744008         1.989811
 H        -1.424710         0.088054         2.050383
 H        -2.984211         0.752899        -0.340828
 H        -2.296371        -1.570899        -1.277406
 H        -0.743848        -0.457067        -1.854414
 H         0.819802        -2.419746         0.403270
 H        -0.558575         1.988262         0.518039
 H        -0.497190         1.538040        -1.252563
