19
Iteration:  2652
 C        -2.920935        -1.536777         1.654035
 C        -1.778027        -0.529865         1.137690
 C        -1.991058         0.403200        -0.151254
 C        -1.672164        -0.807888        -1.109174
 C        -0.678076        -1.141013         0.253334
 O        -0.069444        -2.332488         0.461549
 C         0.248532        -0.057969         0.157807
 O         1.434317        -0.069874         0.461183
 C        -0.601315         1.171793        -0.341058
 H        -3.013738        -2.504852         1.006355
 H        -2.495401        -1.964076         2.576806
 H        -3.867816        -0.988401         1.834262
 H        -1.347524         0.015166         2.092737
 H        -2.912864         0.892566        -0.289223
 H        -2.191396        -1.771085        -1.211823
 H        -1.151081        -0.540353        -2.083474
 H         0.829781        -2.245588         0.589313
 H        -0.589226         2.240244         0.076418
 H        -0.520613         1.402297        -1.424018
