19
Iteration:  1915charge 0 multiplicity 1
 C        -3.043607        -1.433049         1.662171
 C        -1.874528        -0.633193         1.121271
 C        -1.913383         0.386260        -0.159749
 C        -1.523553        -0.810633        -1.128120
 C        -0.709363        -1.234582         0.221946
 O        -0.043231        -2.383175         0.549836
 C         0.266892         0.004182         0.094428
 O         1.478564        -0.043434         0.077079
 C        -0.624181         1.184364         0.087258
 H        -3.674569        -1.824064         0.915815
 H        -2.578900        -2.161727         2.385694
 H        -3.693412        -0.682946         2.233546
 H        -1.644730        -0.222706         2.077410
 H        -2.826258         0.931151        -0.491452
 H        -2.406958        -1.391938        -1.463043
 H        -0.894691        -0.611242        -2.053077
 H         0.865092        -2.339244         0.280519
 H        -0.719477         1.642514         1.076522
 H        -0.462667         2.035402        -0.647887
