19
Iteration:   970charge 0 multiplicity 1
 C        -2.967952        -1.319548         1.666564
 C        -1.812124        -0.523955         1.196680
 C        -1.998141         0.345616        -0.185337
 C        -1.652139        -0.880537        -1.021226
 C        -0.652643        -1.230521         0.168187
 O         0.027948        -2.465298         0.275599
 C         0.224959         0.036928         0.205229
 O         1.449152        -0.052668         0.335436
 C        -0.652167         1.182136        -0.064857
 H        -3.282855        -2.034042         0.780280
 H        -2.615201        -2.061826         2.376310
 H        -3.677367        -0.578634         2.202326
 H        -1.245150         0.042876         1.958583
 H        -2.948460         0.765957        -0.396057
 H        -2.557426        -1.507947        -1.027510
 H        -1.460577        -0.851870        -2.132013
 H         1.013940        -2.359136         0.231639
 H        -0.506337         1.984199         0.756569
 H        -0.365724         1.676823        -0.970887
