19
Iteration:   290
 C        -3.094759        -1.380614         1.444621
 C        -1.743867        -0.719725         1.233437
 C        -1.976186         0.328966         0.014569
 C        -1.612036        -0.826927        -0.905448
 C        -0.683728        -1.231704         0.294737
 O        -0.055073        -2.466032         0.383108
 C         0.315273         0.118617         0.172160
 O         1.564252         0.007616         0.231338
 C        -0.653849         1.233099        -0.196437
 H        -3.697836        -1.740124         0.590284
 H        -3.099655        -2.185158         2.205414
 H        -3.683879        -0.519668         1.982405
 H        -1.497590        -0.086757         2.129311
 H        -2.995095         0.712145        -0.094045
 H        -2.517238        -1.480671        -1.056210
 H        -1.185971        -0.504137        -1.992922
 H         0.684431        -2.541245        -0.293409
 H        -0.511959         2.210393         0.378360
 H        -0.377091         1.319833        -1.225113
