19
Iteration:  1647charge 0 multiplicity 1
 C        -3.023682        -1.451177         1.519590
 C        -1.825091        -0.546253         1.189178
 C        -1.938868         0.377424        -0.150310
 C        -1.527828        -0.758456        -1.023269
 C        -0.638237        -1.173243         0.295626
 O        -0.097652        -2.420338         0.526424
 C         0.299838         0.029060         0.168098
 O         1.496627        -0.120205        -0.001789
 C        -0.748218         1.167941         0.009997
 H        -3.567861        -1.818614         0.583612
 H        -2.607620        -2.306117         1.978437
 H        -3.541931        -0.957540         2.299938
 H        -1.545970        -0.121996         2.140886
 H        -2.944768         0.845728        -0.204298
 H        -2.322996        -1.436532        -1.307666
 H        -0.846477        -0.554179        -1.835131
 H         0.848087        -2.244791         0.793377
 H        -0.875976         1.795124         0.950334
 H        -0.287930         1.814538        -0.769153
