19
Iteration:  3116
 C        -2.910669        -1.463789         1.574429
 C        -1.806195        -0.426664         1.118316
 C        -1.956699         0.362472        -0.159591
 C        -1.645041        -0.982163        -0.967002
 C        -0.595862        -1.210015         0.159082
 O        -0.208772        -2.517145         0.430738
 C         0.325577         0.048725         0.186223
 O         1.487480         0.144107         0.417388
 C        -0.650622         1.175146        -0.233590
 H        -3.654144        -1.829668         0.756961
 H        -2.389190        -2.424829         1.827576
 H        -3.398034        -1.024401         2.426729
 H        -1.430873         0.112469         2.012527
 H        -2.902790         0.894374        -0.337790
 H        -2.455989        -1.680784        -0.767378
 H        -1.276518        -1.010740        -1.998303
 H         0.799100        -2.539070         0.615650
 H        -0.752876         2.173766         0.218299
 H        -0.260302         1.372743        -1.314098
