19
Iteration:   138
 C        -2.966823        -1.346387         1.513120
 C        -1.786273        -0.485774         1.244256
 C        -1.992302         0.352317         0.015313
 C        -1.715640        -0.820752        -0.882686
 C        -0.700021        -1.302781         0.133163
 O         0.001009        -2.457834         0.226224
 C         0.282754        -0.008510         0.068553
 O         1.484969        -0.001909         0.368025
 C        -0.601748         1.107053        -0.156933
 H        -2.946782        -2.340949         1.055119
 H        -2.854275        -1.547889         2.587520
 H        -3.902307        -0.731627         1.276404
 H        -1.448907        -0.020846         2.178959
 H        -2.996711         0.888797        -0.099743
 H        -2.618330        -1.502810        -0.943094
 H        -1.289589        -0.483016        -1.838914
 H         0.882733        -2.253276         0.714776
 H        -0.407139         1.929685         0.619555
 H        -0.564090         1.583917        -1.141995
