19
Iteration:  3609
 C        -3.015572        -1.634050         1.337467
 C        -1.787206        -0.541640         1.121928
 C        -2.032422         0.392633        -0.119969
 C        -1.578702        -0.862083        -0.891781
 C        -0.651979        -1.077117         0.338885
 O        -0.108318        -2.266813         0.756411
 C         0.304898         0.014804         0.117849
 O         1.511112        -0.125593         0.015907
 C        -0.612487         1.244586        -0.075022
 H        -3.585391        -1.676181         0.331231
 H        -2.790409        -2.605458         1.769837
 H        -3.803193        -1.234000         1.961893
 H        -1.590659        -0.205782         2.142179
 H        -2.888943         0.922310        -0.550689
 H        -2.344377        -1.668293        -0.923807
 H        -1.106623        -0.709757        -1.963477
 H         0.806550        -2.524362         0.470887
 H        -0.376716         1.964909         0.693422
 H        -0.415282         1.689687        -1.093145
