19
Iteration:     4charge 0 multiplicity 1
 C        -2.878774        -1.463913         1.554786
 C        -1.800868        -0.564019         1.191414
 C        -1.997625         0.441590        -0.017513
 C        -1.648985        -0.765709        -0.989492
 C        -0.701859        -1.160422         0.213072
 O        -0.121853        -2.451954         0.331761
 C         0.284786        -0.008620         0.118393
 O         1.498226        -0.097529         0.228225
 C        -0.633504         1.191590        -0.071295
 H        -2.540241        -2.259831         2.211195
 H        -3.654729        -1.004753         2.190639
 H        -3.337333        -1.946470         0.727738
 H        -1.389848        -0.099415         2.077078
 H        -2.893649         0.983788        -0.140692
 H        -2.402770        -1.496977        -1.009437
 H        -1.203514        -0.556748        -1.948337
 H         0.820683        -2.245926         0.368595
 H        -0.609238         1.825873         0.744850
 H        -0.424987         1.657697        -1.038712
