19
Iteration:    76
 C        -2.808790        -1.345820         1.683680
 C        -1.760759        -0.447686         1.173808
 C        -1.976242         0.343974        -0.117634
 C        -1.611899        -0.743539        -1.105788
 C        -0.658812        -1.221730         0.031524
 O        -0.109963        -2.540236         0.350478
 C         0.237424        -0.016747         0.076327
 O         1.408043        -0.073087         0.378513
 C        -0.714364         1.145926        -0.007563
 H        -2.475786        -2.386733         1.557756
 H        -2.934613        -1.317808         2.745322
 H        -3.791769        -1.295588         1.213891
 H        -1.151735         0.068117         1.933117
 H        -2.867703         0.916573        -0.359592
 H        -2.438166        -1.393936        -1.101986
 H        -1.240178        -0.445898        -2.128897
 H         0.680042        -2.195808         0.746273
 H        -0.632760         1.685457         0.967138
 H        -0.533797         1.713307        -0.914891
