19
Iteration:  2369
 C        -2.776686        -1.507352         1.593465
 C        -1.812511        -0.454715         1.172844
 C        -2.001747         0.444164        -0.080195
 C        -1.715251        -0.857978        -1.001687
 C        -0.674400        -1.192205         0.179864
 O        -0.168742        -2.476044         0.304119
 C         0.299767         0.030455         0.136748
 O         1.483479        -0.059234         0.367027
 C        -0.613979         1.188563        -0.130835
 H        -3.602754        -1.624686         0.937741
 H        -2.505926        -2.638756         1.595385
 H        -3.334351        -1.350697         2.515714
 H        -1.237021         0.003598         2.068807
 H        -2.747292         1.175608        -0.408359
 H        -2.665423        -1.390466        -0.897546
 H        -1.291530        -0.556162        -1.999163
 H         0.800053        -2.402140         0.712677
 H        -0.557467         2.044902         0.550277
 H        -0.492914         1.603666        -1.118005
