19
Iteration:  2913
 C        -2.937118        -1.369167         1.581621
 C        -1.729128        -0.405504         1.160800
 C        -2.036611         0.286090        -0.186401
 C        -1.572667        -0.958280        -0.980195
 C        -0.634512        -1.150269         0.249896
 O        -0.011653        -2.413393         0.402624
 C         0.258138        -0.037955         0.126398
 O         1.388466        -0.015737         0.602697
 C        -0.745310         1.116899        -0.406093
 H        -3.348884        -0.975427         2.609951
 H        -3.628992        -1.305197         0.752418
 H        -2.631013        -2.439460         1.764038
 H        -1.250653         0.244793         1.885407
 H        -2.951154         0.807049        -0.409872
 H        -2.294234        -1.742416        -1.263840
 H        -1.015892        -0.686174        -1.878689
 H         0.938561        -2.092040         0.478685
 H        -0.599021         2.141780         0.067363
 H        -0.618473         1.242285        -1.489488
