19
Iteration:  1834
 C        -2.936638        -1.468683         1.651282
 C        -1.796151        -0.543386         1.126680
 C        -1.965930         0.356203        -0.078903
 C        -1.622096        -0.800740        -1.043185
 C        -0.748917        -1.213672         0.145337
 O        -0.186989        -2.430727         0.395346
 C         0.365119         0.026407         0.151292
 O         1.558392         0.007053         0.334018
 C        -0.643355         1.164018        -0.126278
 H        -3.456316        -2.055167         0.758462
 H        -2.389780        -2.446635         1.950359
 H        -3.660513        -1.074931         2.339432
 H        -1.274939        -0.074618         1.937186
 H        -2.951061         0.809963        -0.144620
 H        -2.527744        -1.395347        -1.142108
 H        -1.212161        -0.458982        -1.985076
 H         0.711804        -2.271442         0.620143
 H        -0.685037         2.124077         0.382217
 H        -0.454898         1.494854        -1.158497
