19
Iteration:  4302
 C        -2.784502        -1.504534         1.598555
 C        -1.708868        -0.491720         1.149261
 C        -1.949406         0.410679        -0.182586
 C        -1.710009        -0.940776        -1.051507
 C        -0.691380        -1.170175         0.107504
 O        -0.181438        -2.451812         0.426826
 C         0.313363         0.081426         0.066035
 O         1.401488        -0.015121         0.621962
 C        -0.657099         1.180923        -0.311403
 H        -2.989482        -2.253032         0.895037
 H        -2.426786        -1.793481         2.631536
 H        -3.761614        -0.998031         1.819795
 H        -1.117391        -0.015339         1.865146
 H        -2.936477         0.977511        -0.148448
 H        -2.470699        -1.662595        -1.120183
 H        -1.292139        -0.877474        -1.978534
 H         0.652096        -2.214847         0.825741
 H        -0.588010         2.133318         0.367643
 H        -0.475009         1.498141        -1.303989
