19
Iteration:   968charge 0 multiplicity 1
 C        -2.954870        -1.316389         1.690477
 C        -1.827292        -0.516421         1.201308
 C        -1.995503         0.349907        -0.187428
 C        -1.647769        -0.883982        -1.031687
 C        -0.645798        -1.226825         0.141805
 O         0.051636        -2.462831         0.274288
 C         0.220138         0.048957         0.209742
 O         1.442483        -0.067442         0.337514
 C        -0.647400         1.180298        -0.066528
 H        -3.415107        -1.987995         0.800583
 H        -2.628556        -2.041838         2.410104
 H        -3.740440        -0.645008         2.165011
 H        -1.273286         0.064466         1.979444
 H        -2.935303         0.808468        -0.380717
 H        -2.615754        -1.503219        -1.079903
 H        -1.444934        -0.810750        -2.138771
 H         0.984726        -2.441176         0.296259
 H        -0.594777         1.902495         0.801674
 H        -0.391445         1.623335        -0.996640
