19
Iteration:  3311
 C        -2.952068        -1.647531         1.422877
 C        -1.854858        -0.518815         1.129450
 C        -2.000192         0.442934        -0.151014
 C        -1.492861        -0.803729        -1.003363
 C        -0.673190        -1.110482         0.383955
 O        -0.170769        -2.367503         0.768164
 C         0.306521         0.003555         0.146394
 O         1.484117        -0.110988        -0.013041
 C        -0.643868         1.251423        -0.144066
 H        -3.775600        -1.753196         0.658907
 H        -2.438331        -2.630302         1.503953
 H        -3.381267        -1.507687         2.416841
 H        -1.498696        -0.061290         2.122186
 H        -2.949198         0.890987        -0.495489
 H        -2.160697        -1.669183        -1.199097
 H        -1.063600        -0.530414        -1.998999
 H         0.783946        -2.220585         0.880846
 H        -0.493330         1.860539         0.746491
 H        -0.448622         1.984724        -0.986673
