19
Iteration:  3337charge 0 multiplicity 1
 C        -2.986871        -1.530322         1.331073
 C        -1.812505        -0.503866         1.122601
 C        -1.944267         0.401015        -0.072440
 C        -1.639680        -0.842693        -1.022840
 C        -0.664435        -1.178087         0.313974
 O        -0.058830        -2.312332         0.779938
 C         0.292781        -0.052707         0.145008
 O         1.517607        -0.054414         0.029652
 C        -0.676235         1.129107        -0.080383
 H        -3.913274        -1.630687         0.508899
 H        -2.553418        -2.530888         1.391895
 H        -3.484561        -1.326019         2.315341
 H        -1.626392         0.052123         2.044201
 H        -2.870239         0.935352        -0.274654
 H        -2.513474        -1.487804        -1.202254
 H        -1.197956        -0.642380        -1.977832
 H         0.925135        -2.085017         0.860239
 H        -0.414004         1.886708         0.719988
 H        -0.647437         1.740965        -1.038510
