19
Iteration:   222charge 0 multiplicity 1
 C        -2.814875        -1.593183         1.590610
 C        -1.826961        -0.507222         1.052554
 C        -1.911303         0.422112        -0.172088
 C        -1.449824        -0.797571        -1.056877
 C        -0.714174        -1.118026         0.229433
 O        -0.234409        -2.388975         0.525319
 C         0.248416         0.018151         0.146229
 O         1.436272        -0.189623         0.079350
 C        -0.683706         1.294938         0.102042
 H        -3.589552        -2.048359         0.948725
 H        -2.201101        -2.503362         1.887288
 H        -3.321457        -1.241164         2.510665
 H        -1.621382         0.051200         2.004825
 H        -2.867158         1.010941        -0.367393
 H        -2.476941        -1.423623        -1.064383
 H        -0.842635        -0.861538        -2.022601
 H         0.653531        -2.111708         0.766222
 H        -0.719621         1.972893         0.940972
 H        -0.553220         1.893754        -0.850134
