19
Iteration:  3912
 C        -3.121863        -1.483163         1.476377
 C        -1.820879        -0.506038         1.122099
 C        -1.954447         0.410612        -0.086077
 C        -1.443443        -0.925988        -1.007315
 C        -0.665412        -1.197727         0.296691
 O        -0.029710        -2.369214         0.582293
 C         0.235682         0.005059         0.172929
 O         1.459269        -0.032388         0.068773
 C        -0.668562         1.159051        -0.050858
 H        -3.202421        -2.211724         0.691588
 H        -3.015896        -1.887115         2.547164
 H        -3.984425        -0.808478         1.582642
 H        -1.593392        -0.119717         2.107761
 H        -2.897727         0.961870        -0.360925
 H        -2.211811        -1.648139        -1.190160
 H        -0.917789        -0.741331        -1.959159
 H         0.955943        -2.104708         0.559372
 H        -0.538027         1.938373         0.736406
 H        -0.334389         1.617613        -1.077613
