19
Iteration:  2957charge 0 multiplicity 1
 C        -2.952928        -1.438926         1.568186
 C        -1.861795        -0.524420         1.060816
 C        -1.999071         0.318237        -0.275613
 C        -1.643381        -0.933460        -1.094904
 C        -0.647597        -1.177396         0.238878
 O        -0.095596        -2.385538         0.670849
 C         0.324525         0.076134         0.017423
 O         1.542313         0.019431         0.311563
 C        -0.646638         1.126079        -0.126171
 H        -3.720406        -0.941977         2.242579
 H        -3.468450        -2.113346         0.877344
 H        -2.462135        -2.088908         2.345383
 H        -1.638703         0.024758         1.962820
 H        -2.879259         0.892008        -0.473426
 H        -2.394660        -1.768560        -1.165126
 H        -1.163653        -0.740028        -2.051701
 H         0.633733        -2.163714         1.204748
 H        -0.633934         1.775425         0.815418
 H        -0.428274         1.742927        -1.002677
