19
Iteration:  4165
 C        -3.067129        -1.497493         1.382738
 C        -1.829567        -0.572002         1.207679
 C        -1.936921         0.385666        -0.124355
 C        -1.536806        -0.852236        -0.998263
 C        -0.600531        -1.106286         0.392527
 O        -0.072764        -2.332758         0.640327
 C         0.281317         0.009407         0.230622
 O         1.479990        -0.084919         0.008136
 C        -0.693428         1.165326        -0.094375
 H        -3.261866        -1.868129         0.290672
 H        -2.820641        -2.325675         2.029449
 H        -4.030690        -1.167985         1.844356
 H        -1.767531        -0.139701         2.188541
 H        -2.820029         0.948627        -0.249445
 H        -2.256176        -1.678063        -1.274373
 H        -0.896076        -0.541630        -1.887602
 H         0.774630        -2.339809         0.190146
 H        -0.585680         1.789812         0.718097
 H        -0.386995         1.733390        -1.038084
