19
Iteration:  1923
 C        -3.017384        -1.419694         1.671562
 C        -1.916198        -0.567340         1.076937
 C        -1.918668         0.403561        -0.166021
 C        -1.476482        -0.903479        -1.073478
 C        -0.728005        -1.222700         0.223344
 O        -0.048047        -2.425380         0.513756
 C         0.269876         0.000380         0.127273
 O         1.492791        -0.014472         0.059095
 C        -0.662919         1.191512         0.131869
 H        -3.583671        -1.848743         0.841460
 H        -2.901747        -2.292006         2.447688
 H        -3.781843        -0.728651         2.070240
 H        -1.329791         0.025408         1.826901
 H        -2.749856         1.072126        -0.132115
 H        -2.338899        -1.528401        -1.412167
 H        -0.904355        -0.614989        -1.974615
 H         0.802592        -2.233856         0.036713
 H        -0.698611         1.632836         1.072203
 H        -0.365432         1.876575        -0.703699
