19
Iteration:   183
 C        -2.900839        -1.547076         1.600897
 C        -1.839238        -0.563944         1.133142
 C        -1.942683         0.376031        -0.074362
 C        -1.629494        -0.726897        -1.077223
 C        -0.654961        -1.169449         0.251194
 O        -0.245722        -2.429324         0.481937
 C         0.340802        -0.002422         0.114660
 O         1.575921         0.000990         0.239017
 C        -0.691973         1.168180        -0.080914
 H        -3.220313        -2.190143         0.775263
 H        -2.467931        -2.233399         2.300298
 H        -3.721541        -0.932787         2.060970
 H        -1.316802        -0.039899         1.918969
 H        -2.873010         0.921108        -0.264452
 H        -2.380431        -1.434048        -1.113569
 H        -1.135912        -0.511978        -2.023724
 H         0.633037        -2.719958         0.034789
 H        -0.496005         2.079506         0.572361
 H        -0.620189         1.617257        -1.060532
