19
Iteration:  2107charge 0 multiplicity 1
 C        -2.941173        -1.383771         1.456821
 C        -1.706519        -0.519926         1.251872
 C        -1.980426         0.435241         0.041488
 C        -1.656205        -0.928545        -0.905775
 C        -0.655861        -1.177217         0.188438
 O        -0.087058        -2.510885         0.241960
 C         0.308994         0.024171         0.150400
 O         1.523349        -0.053325         0.299893
 C        -0.727421         1.245778        -0.164232
 H        -3.675169        -1.301029         0.704817
 H        -2.546717        -2.479227         1.643081
 H        -3.424031        -1.065585         2.347541
 H        -1.358545        -0.181001         2.201925
 H        -2.905156         0.911993        -0.208586
 H        -2.435129        -1.659314        -0.652197
 H        -1.666928        -0.821567        -1.975276
 H         0.607312        -2.510491         0.879229
 H        -0.730758         2.181518         0.506567
 H        -0.668671         1.715001        -1.210460
