19
Iteration:  4415charge 0 multiplicity 1
 C        -3.053039        -1.576250         1.373306
 C        -1.897595        -0.550025         1.144413
 C        -1.933999         0.428563        -0.060095
 C        -1.523407        -0.851315        -0.951487
 C        -0.704063        -1.140884         0.399816
 O        -0.046521        -2.307076         0.645745
 C         0.305177         0.006516         0.189073
 O         1.512896        -0.091399         0.003553
 C        -0.642611         1.172676        -0.135273
 H        -3.863598        -1.774292         0.537156
 H        -2.661092        -2.418865         1.985580
 H        -3.793201        -1.035874         1.950701
 H        -1.711736        -0.298250         2.162562
 H        -2.821599         0.985587        -0.221497
 H        -2.376654        -1.577178        -1.086812
 H        -0.909040        -0.790423        -1.842594
 H         0.906126        -2.094525         0.308135
 H        -0.456940         1.938452         0.648703
 H        -0.510114         1.684982        -1.204677
