19
Iteration:  4233
 C        -2.971298        -1.420128         1.606465
 C        -1.787865        -0.521835         1.105799
 C        -2.060664         0.385235        -0.201167
 C        -1.529031        -0.909638        -1.001363
 C        -0.621943        -1.179299         0.226239
 O        -0.068894        -2.439645         0.384948
 C         0.276976         0.050305         0.201608
 O         1.472067        -0.030499         0.407152
 C        -0.723982         1.146311        -0.213594
 H        -3.791326        -1.749813         0.877544
 H        -2.481449        -2.081646         2.347105
 H        -3.517457        -0.864670         2.459924
 H        -1.407667         0.150485         1.908353
 H        -2.861011         1.029525        -0.522482
 H        -2.282485        -1.713902        -1.126637
 H        -1.056019        -0.816118        -2.006082
 H         0.930575        -2.490204         0.587373
 H        -0.780191         1.981331         0.456192
 H        -0.325706         1.577404        -1.201362
