19
Iteration:  2576
 C        -3.030550        -1.458561         1.688954
 C        -1.802305        -0.545965         1.148489
 C        -1.987151         0.416700        -0.128121
 C        -1.550926        -0.850918        -1.001270
 C        -0.599462        -1.210725         0.200538
 O        -0.107823        -2.476264         0.342920
 C         0.273920         0.021669         0.162472
 O         1.466731         0.049862         0.376491
 C        -0.660576         1.133709        -0.277581
 H        -2.796621        -2.493356         1.928845
 H        -3.403042        -0.852544         2.536281
 H        -3.850131        -1.350201         0.951317
 H        -1.373600        -0.089388         1.988334
 H        -2.939593         0.888643        -0.168442
 H        -2.342400        -1.591979        -1.121621
 H        -0.850898        -0.640355        -1.858874
 H         0.867553        -2.364648         0.635246
 H        -0.567358         1.941757         0.491794
 H        -0.338003         1.416826        -1.277224
