19
Iteration:  1684charge 0 multiplicity 1
 C        -2.883950        -1.578501         1.675493
 C        -1.876310        -0.527234         1.127709
 C        -1.940596         0.399059        -0.189365
 C        -1.457836        -0.826944        -1.029479
 C        -0.709654        -1.131358         0.271164
 O        -0.248698        -2.429471         0.408597
 C         0.292093         0.022547         0.194666
 O         1.494770        -0.048089         0.157509
 C        -0.679321         1.226166        -0.070297
 H        -3.416946        -2.295606         1.210038
 H        -2.275746        -2.068646         2.494662
 H        -3.703492        -1.012828         2.128068
 H        -1.456218         0.116138         2.005384
 H        -2.752208         0.962176        -0.621915
 H        -2.347879        -1.470177        -1.211892
 H        -0.885398        -0.669500        -2.006315
 H         0.719833        -2.435203         0.304807
 H        -0.728008         1.751240         0.863139
 H        -0.166127         1.871844        -0.848133
