19
Iteration:  4664charge 0 multiplicity 1
 C        -3.030359        -1.498532         1.457718
 C        -1.833771        -0.562310         1.126139
 C        -1.956481         0.400130        -0.115807
 C        -1.607786        -0.821744        -0.955753
 C        -0.669934        -1.179437         0.419361
 O        -0.060842        -2.402776         0.589955
 C         0.296030         0.007653         0.139732
 O         1.517226        -0.071045         0.149800
 C        -0.669276         1.213321        -0.235780
 H        -3.278053        -2.213223         0.632451
 H        -2.668778        -2.187427         2.277323
 H        -3.919016        -0.907353         1.819893
 H        -1.340101        -0.124717         2.112627
 H        -2.856430         0.996345        -0.183001
 H        -2.443073        -1.591451        -1.264198
 H        -1.016043        -0.590867        -2.006018
 H         0.930613        -2.112781         0.402220
 H        -0.721379         1.972198         0.637091
 H        -0.464368         1.743120        -1.147689
