19
Iteration:  3390charge 0 multiplicity 1
 C        -3.032456        -1.297506         1.562991
 C        -1.855751        -0.572772         1.120822
 C        -2.068276         0.348389        -0.194080
 C        -1.520263        -0.879518        -0.930405
 C        -0.619345        -1.201173         0.251825
 O         0.011980        -2.434520         0.426218
 C         0.260786        -0.020679         0.198303
 O         1.466916         0.025961         0.237100
 C        -0.666707         1.092899        -0.132167
 H        -3.687903        -1.795612         0.792146
 H        -2.710040        -2.135065         2.086180
 H        -3.688297        -0.682921         2.137905
 H        -1.664126         0.038712         2.009622
 H        -2.949848         0.939921        -0.275349
 H        -2.168867        -1.770771        -1.013622
 H        -0.940634        -0.656424        -1.799847
 H         0.981968        -2.351418         0.687303
 H        -0.569083         1.948073         0.546007
 H        -0.374484         1.479196        -1.172956
