19
Iteration:  3503
 C        -2.840608        -1.425768         1.602782
 C        -1.757131        -0.478172         1.140184
 C        -2.052340         0.376584        -0.159572
 C        -1.672926        -0.943730        -1.038906
 C        -0.686504        -1.214364         0.138913
 O        -0.097638        -2.402118         0.439462
 C         0.305398        -0.022147         0.065530
 O         1.435360        -0.017013         0.529579
 C        -0.630684         1.175706        -0.244994
 H        -3.044300        -2.352033         1.001290
 H        -2.637436        -1.918847         2.512003
 H        -3.698183        -0.748399         1.483874
 H        -1.236558         0.043199         1.944804
 H        -3.017975         0.934132        -0.139161
 H        -2.429215        -1.672463        -1.082159
 H        -1.208625        -0.726164        -1.998835
 H         0.718431        -2.080110         0.861300
 H        -0.593076         2.206912         0.269167
 H        -0.376064         1.513541        -1.258853
