19
Iteration:   929charge 0 multiplicity 1
 C        -2.909132        -1.380286         1.775067
 C        -1.764617        -0.582819         1.098162
 C        -1.989515         0.303474        -0.139074
 C        -1.649491        -0.856043        -1.089550
 C        -0.646682        -1.151127         0.192055
 O        -0.035336        -2.393346         0.260624
 C         0.226308         0.024041         0.163847
 O         1.420389        -0.120712         0.425135
 C        -0.660024         1.173139        -0.176020
 H        -3.453183        -1.840707         1.007510
 H        -2.746406        -2.177719         2.524541
 H        -3.460781        -0.582382         2.288437
 H        -1.359683        -0.055281         1.954714
 H        -2.854489         0.957994        -0.315300
 H        -2.436908        -1.544425        -1.192469
 H        -1.052275        -0.609243        -1.939341
 H         0.812695        -2.006214         0.429444
 H        -0.692980         2.006654         0.530550
 H        -0.334885         1.815880        -1.017743
