19
Iteration:  3758
 C        -2.795946        -1.357566         1.651568
 C        -1.731430        -0.439351         1.118100
 C        -2.035985         0.348069        -0.248156
 C        -1.693245        -0.942111        -1.086869
 C        -0.711840        -1.229763         0.087137
 O        -0.040950        -2.399890         0.400304
 C         0.267320        -0.028609         0.104561
 O         1.409241        -0.031676         0.586558
 C        -0.630076         1.148376        -0.204401
 H        -3.266485        -1.982970         0.900291
 H        -2.415569        -2.254793         2.310489
 H        -3.587826        -0.735877         2.142508
 H        -1.222963         0.123020         2.030408
 H        -2.982705         0.947372        -0.420699
 H        -2.548215        -1.666116        -0.913452
 H        -1.539022        -0.785151        -2.091876
 H         0.676224        -2.171613         1.030851
 H        -0.444950         2.007334         0.540898
 H        -0.719518         1.547311        -1.241810
