19
Iteration:  4846
 C        -2.882790        -1.348420         1.712354
 C        -1.795832        -0.505155         1.107130
 C        -1.992869         0.380067        -0.123945
 C        -1.522969        -0.947486        -1.092490
 C        -0.676114        -1.233867         0.122284
 O        -0.069504        -2.380902         0.369836
 C         0.213115         0.015665         0.180332
 O         1.396032        -0.018707         0.440632
 C        -0.679304         1.109909        -0.222934
 H        -3.413505        -1.848145         0.970511
 H        -2.545343        -2.185112         2.402268
 H        -3.621021        -0.663530         2.239703
 H        -1.242483         0.034480         2.048494
 H        -3.041479         0.877240        -0.262908
 H        -2.395273        -1.763984        -1.147910
 H        -0.959125        -0.780625        -1.986776
 H         0.858656        -2.215261         0.416840
 H        -0.474919         1.942704         0.492094
 H        -0.487341         1.461097        -1.192329
