19
Iteration:  3251
 C        -3.015759        -1.375332         1.505993
 C        -1.775713        -0.591123         1.150166
 C        -1.989365         0.321673        -0.072529
 C        -1.582802        -0.937931        -1.018293
 C        -0.666032        -1.209510         0.190965
 O        -0.083109        -2.463697         0.601518
 C         0.298199         0.029920         0.053975
 O         1.476461         0.082208         0.226739
 C        -0.642600         1.187188        -0.099699
 H        -3.572171        -1.917594         0.744761
 H        -2.698967        -2.082504         2.234452
 H        -3.748795        -0.625172         1.858809
 H        -1.269421        -0.148048         2.038890
 H        -2.838822         0.887878        -0.462203
 H        -2.438300        -1.636362        -1.098918
 H        -1.228862        -0.533153        -1.967308
 H         0.856270        -2.260498         0.502073
 H        -0.362728         1.978455         0.640871
 H        -0.636190         1.454331        -1.125659
