19
Iteration:  3029
 C        -3.089364        -1.497612         1.405256
 C        -1.977421        -0.526925         1.108351
 C        -2.018654         0.333232        -0.112778
 C        -1.522081        -0.908918        -0.925146
 C        -0.653228        -1.133505         0.362655
 O         0.008649        -2.328630         0.766039
 C         0.322538         0.010059         0.029677
 O         1.552668        -0.014472        -0.004034
 C        -0.618309         1.164833        -0.045522
 H        -4.044691        -1.093064         0.942755
 H        -2.927456        -2.501094         0.969909
 H        -3.379978        -1.643164         2.420970
 H        -1.750337         0.053941         2.057344
 H        -2.727188         0.967176        -0.682640
 H        -2.324248        -1.627154        -0.908693
 H        -1.090836        -0.889615        -1.956258
 H         0.831498        -2.500156         0.382161
 H        -0.607016         1.769376         0.829760
 H        -0.409840         1.777769        -0.971494
