19
Iteration:  3664
 C        -2.933045        -1.412304         1.529818
 C        -1.763514        -0.498219         1.108160
 C        -1.912269         0.326967        -0.148736
 C        -1.535165        -0.941268        -1.066550
 C        -0.676789        -1.195591         0.229644
 O        -0.177429        -2.458178         0.529276
 C         0.242262         0.040400         0.205587
 O         1.453044        -0.010953         0.179974
 C        -0.694332         1.265414        -0.067896
 H        -3.144131        -2.245790         0.850118
 H        -2.533952        -2.094946         2.237503
 H        -3.687304        -0.766455         1.908260
 H        -1.366692        -0.031162         1.992710
 H        -2.822476         0.880051        -0.356924
 H        -2.253316        -1.748869        -1.148979
 H        -0.860033        -0.818418        -2.021770
 H         0.674806        -2.302175         1.046485
 H        -0.804939         1.878373         0.791347
 H        -0.477204         1.845185        -0.990669
