19
Iteration:  1616
 C        -3.120131        -1.462283         1.308348
 C        -1.811782        -0.604353         1.243693
 C        -1.924042         0.435632         0.037681
 C        -1.739976        -0.870253        -0.873126
 C        -0.623281        -1.189316         0.139118
 O         0.029166        -2.328956         0.624614
 C         0.286643         0.001667         0.042684
 O         1.512082        -0.043755         0.092678
 C        -0.571944         1.147529        -0.043878
 H        -3.758475        -1.668706         0.434793
 H        -2.786341        -2.372386         1.771832
 H        -3.835225        -0.865905         1.820667
 H        -1.622441        -0.331505         2.357092
 H        -2.924161         0.905119         0.047867
 H        -2.650106        -1.468567        -0.927521
 H        -1.363146        -0.747486        -1.933970
 H         0.916868        -2.417405         0.119301
 H        -0.437766         1.883991         0.757818
 H        -0.270448         1.658825        -1.035934
