19
Iteration:  1065charge 0 multiplicity 1
 C        -2.886467        -1.493040         1.516711
 C        -1.860177        -0.531007         1.126892
 C        -2.014115         0.435846        -0.144041
 C        -1.563296        -0.816007        -1.013771
 C        -0.720446        -1.116057         0.280569
 O        -0.110368        -2.398011         0.497640
 C         0.320603         0.052055         0.187953
 O         1.544355        -0.195374         0.104323
 C        -0.757720         1.233178         0.012109
 H        -3.215964        -2.277725         0.842053
 H        -2.454198        -2.296944         2.086821
 H        -3.497946        -1.044346         2.257421
 H        -1.578621         0.037191         2.009392
 H        -2.879808         0.954366        -0.506355
 H        -2.349375        -1.583369        -1.322124
 H        -0.973364        -0.668228        -1.946061
 H         0.876427        -2.417125         0.224335
 H        -0.676706         1.723002         0.988754
 H        -0.551922         2.001567        -0.725075
