19
Iteration:  4960charge 0 multiplicity 1
 C        -2.966384        -1.560905         1.484338
 C        -1.848415        -0.497305         1.163535
 C        -1.962805         0.413276        -0.191781
 C        -1.565279        -0.885432        -1.071102
 C        -0.704638        -1.123861         0.311694
 O        -0.095635        -2.324493         0.671617
 C         0.273583        -0.048086         0.069783
 O         1.492378        -0.095224         0.102410
 C        -0.680610         1.207417        -0.050338
 H        -3.232285        -2.200680         0.579264
 H        -2.437458        -2.221485         2.118166
 H        -3.631711        -1.023608         2.068846
 H        -1.379573         0.098450         2.019556
 H        -2.763528         1.058016        -0.173073
 H        -2.394839        -1.669131        -1.018314
 H        -0.997733        -0.707265        -1.910887
 H         0.889135        -2.037345         0.490637
 H        -0.739771         1.702793         0.881668
 H        -0.345093         1.768473        -0.895416
