19
Iteration:  1265charge 0 multiplicity 1
 C        -2.984207        -1.417117         1.535285
 C        -1.726871        -0.648817         1.232175
 C        -1.969533         0.361693         0.028379
 C        -1.602792        -0.849006        -0.978591
 C        -0.639300        -1.186327         0.218744
 O        -0.178645        -2.471409         0.283738
 C         0.322877         0.030141         0.116042
 O         1.500387         0.127968         0.341659
 C        -0.625007         1.089918        -0.219529
 H        -3.662786        -1.876586         0.719503
 H        -2.876966        -2.074581         2.390995
 H        -3.728249        -0.677995         1.814114
 H        -1.483822        -0.303516         2.187365
 H        -2.859378         1.008969        -0.119929
 H        -2.405568        -1.606384        -1.110784
 H        -1.163913        -0.415066        -1.928870
 H         0.687399        -2.525979         0.796524
 H        -0.550674         2.006766         0.393385
 H        -0.535692         1.506791        -1.200955
