19
Iteration:   451
 C        -3.071517        -1.311136         1.629523
 C        -1.818813        -0.560842         1.121660
 C        -1.963936         0.329120        -0.138454
 C        -1.463333        -0.809613        -1.021986
 C        -0.694580        -1.253287         0.331564
 O         0.016721        -2.429007         0.286262
 C         0.253260         0.004843         0.232826
 O         1.460104        -0.071056         0.185270
 C        -0.720293         1.149690        -0.052482
 H        -3.653067        -1.689589         0.802655
 H        -2.560264        -2.070520         2.271617
 H        -3.716549        -0.609641         2.209190
 H        -1.405352        -0.101720         2.036523
 H        -2.954967         0.836540        -0.320824
 H        -2.307834        -1.468827        -1.167307
 H        -0.921302        -0.754409        -1.910742
 H         0.818379        -2.291513         0.721354
 H        -0.815159         1.954184         0.728165
 H        -0.494008         1.718691        -1.014405
