19
Iteration:   844charge 0 multiplicity 1
 C        -2.908334        -1.531158         1.566986
 C        -1.842507        -0.491616         1.172693
 C        -2.005626         0.420705        -0.141351
 C        -1.538094        -0.770683        -1.016051
 C        -0.650262        -1.168006         0.277207
 O        -0.171652        -2.449627         0.442353
 C         0.294964        -0.026605         0.184380
 O         1.491471        -0.046194         0.154005
 C        -0.701025         1.206369        -0.111269
 H        -3.399792        -2.039410         0.740391
 H        -2.171892        -2.153431         2.191628
 H        -3.707062        -1.148537         2.246821
 H        -1.310307        -0.007775         2.042619
 H        -2.965482         0.912755        -0.435140
 H        -2.307228        -1.555405        -1.244964
 H        -0.933923        -0.516711        -1.956692
 H         0.688957        -2.549979         1.021355
 H        -0.687609         1.722080         0.831679
 H        -0.252734         1.717082        -1.036452
