19
Iteration:  2130
 C        -2.996517        -1.481641         1.523763
 C        -1.767560        -0.572909         1.213733
 C        -1.970698         0.399259        -0.013322
 C        -1.695221        -0.780035        -0.936502
 C        -0.693902        -1.175095         0.280405
 O        -0.038562        -2.378756         0.357169
 C         0.270616         0.000969         0.080860
 O         1.483049        -0.074680         0.251403
 C        -0.605023         1.128639        -0.142637
 H        -3.798336        -1.325835         0.889995
 H        -2.558481        -2.578652         1.496534
 H        -3.358297        -1.312169         2.533230
 H        -1.509018        -0.017164         2.129554
 H        -2.873954         0.983099        -0.055172
 H        -2.590954        -1.386097        -1.103479
 H        -1.345303        -0.460235        -1.941935
 H         0.956191        -2.287723         0.139014
 H        -0.410746         2.050854         0.443455
 H        -0.257052         1.469577        -1.202154
