19
Iteration:  4961
 C        -2.964573        -1.549995         1.481181
 C        -1.850552        -0.493379         1.173033
 C        -1.964000         0.403536        -0.187665
 C        -1.566622        -0.898802        -1.066465
 C        -0.700703        -1.122189         0.310693
 O        -0.095653        -2.328394         0.672130
 C         0.273122        -0.042619         0.062664
 O         1.491975        -0.097094         0.103003
 C        -0.685504         1.206546        -0.044025
 H        -3.243908        -2.201765         0.562710
 H        -2.399422        -2.223966         2.095082
 H        -3.652359        -1.042949         2.066571
 H        -1.402470         0.096593         2.014069
 H        -2.756988         1.076809        -0.178532
 H        -2.379005        -1.621172        -1.069132
 H        -0.980650        -0.689787        -1.962021
 H         0.895168        -2.052242         0.491524
 H        -0.717798         1.717104         0.880093
 H        -0.337687         1.825128        -0.915806
