19
Iteration:  3618
 C        -3.024598        -1.621510         1.396569
 C        -1.959270        -0.557787         1.187659
 C        -2.040946         0.397875        -0.129027
 C        -1.514941        -0.855869        -0.972836
 C        -0.622403        -1.099434         0.332081
 O        -0.121564        -2.292395         0.770040
 C         0.357366         0.070971         0.098607
 O         1.567730        -0.144120         0.034774
 C        -0.624230         1.237312        -0.124383
 H        -3.382988        -1.949407         0.454843
 H        -2.632215        -2.623478         1.647869
 H        -3.758243        -1.214484         2.060057
 H        -1.553162        -0.059088         2.004968
 H        -2.995235         0.979966        -0.142725
 H        -2.456012        -1.481820        -1.023885
 H        -1.181105        -0.677422        -2.020007
 H         0.692641        -2.398269         0.182294
 H        -0.488660         1.874503         0.697622
 H        -0.366551         1.792486        -1.053696
