19
Iteration:  4918
 C        -2.964118        -1.477021         1.551226
 C        -1.803438        -0.524583         1.186300
 C        -2.002827         0.407154        -0.119170
 C        -1.553381        -0.856991        -0.973775
 C        -0.683505        -1.169411         0.301381
 O        -0.092009        -2.401414         0.511066
 C         0.296793        -0.023582         0.122478
 O         1.506133        -0.047954         0.212696
 C        -0.710810         1.176389        -0.197639
 H        -3.158824        -2.206305         0.600984
 H        -2.752922        -2.171225         2.373065
 H        -3.905119        -0.942233         1.661795
 H        -1.402429         0.100507         2.016384
 H        -2.944375         0.897194        -0.281806
 H        -2.306492        -1.657581        -1.175067
 H        -0.840152        -0.705443        -1.958085
 H         0.819057        -2.164196         0.526494
 H        -0.639439         1.964471         0.564073
 H        -0.574380         1.803745        -1.212623
