19
Iteration:  4025
 C        -2.856021        -1.317485         1.607054
 C        -1.700669        -0.486947         1.112705
 C        -1.979397         0.446699        -0.235544
 C        -1.699048        -0.999036        -0.981433
 C        -0.724544        -1.249858         0.098377
 O         0.055518        -2.449735         0.318084
 C         0.224389        -0.008735         0.160529
 O         1.374029        -0.014600         0.559276
 C        -0.705428         1.138364        -0.223347
 H        -3.641305        -1.707489         0.825894
 H        -2.459402        -2.078438         2.242087
 H        -3.486820        -0.839305         2.423230
 H        -1.137747         0.049703         1.910749
 H        -2.880527         0.944378        -0.377088
 H        -2.517700        -1.719356        -0.932596
 H        -1.324918        -0.981601        -1.947471
 H         0.642338        -2.065272         0.968256
 H        -0.694656         1.894545         0.616711
 H        -0.217621         1.766018        -1.091052
