19
Iteration:  3892
 C        -3.141707        -1.402871         1.463865
 C        -1.873715        -0.684942         1.183156
 C        -1.959098         0.330805        -0.169692
 C        -1.454967        -0.820394        -0.975531
 C        -0.634130        -1.204682         0.414692
 O         0.058785        -2.324617         0.575595
 C         0.219124         0.032835         0.231534
 O         1.417400        -0.180114         0.008458
 C        -0.638557         1.286300        -0.093601
 H        -3.132960        -2.283145         0.703230
 H        -3.126464        -1.833946         2.532190
 H        -4.010106        -0.714320         1.579376
 H        -1.691309        -0.045224         2.141536
 H        -2.838314         0.797233        -0.591585
 H        -2.138486        -1.519132        -1.313296
 H        -0.785936        -0.556642        -1.793208
 H         0.971723        -1.952968         0.272853
 H        -0.837784         1.980279         0.713277
 H        -0.364606         1.864899        -1.099534
