19
Iteration:  2534charge 0 multiplicity 1
 C        -2.846401        -1.478996         1.458930
 C        -1.779557        -0.536918         1.125054
 C        -2.074686         0.442972        -0.160876
 C        -1.679355        -0.843851        -0.985202
 C        -0.704377        -1.126040         0.174133
 O        -0.065663        -2.357056         0.579289
 C         0.283077         0.008599         0.118278
 O         1.485536        -0.178242         0.244506
 C        -0.637388         1.190336        -0.083757
 H        -2.545691        -2.018891         2.316873
 H        -3.928733        -1.076456         1.765900
 H        -3.014957        -2.326205         0.710674
 H        -1.386430        -0.020210         2.008171
 H        -2.845595         1.122798        -0.438245
 H        -2.398860        -1.620595        -0.716068
 H        -1.253155        -0.772342        -2.067866
 H         0.867540        -2.208559         0.614946
 H        -0.613228         1.768285         0.854841
 H        -0.469899         1.955764        -0.849765
