19
Iteration:  3638
 C        -2.984275        -1.591244         1.488261
 C        -1.871308        -0.471826         1.090591
 C        -1.979510         0.377194        -0.177349
 C        -1.520846        -0.786575        -1.020891
 C        -0.677805        -1.153907         0.372668
 O        -0.148681        -2.370868         0.683916
 C         0.300768        -0.028980         0.143783
 O         1.519278        -0.052457         0.066014
 C        -0.659199         1.193755        -0.082059
 H        -3.350244        -2.200756         0.722227
 H        -2.478556        -2.483712         2.017389
 H        -3.683423        -1.019394         2.143300
 H        -1.644362        -0.000935         2.081501
 H        -2.789371         1.042007        -0.569174
 H        -2.268283        -1.587213        -1.346088
 H        -0.894857        -0.465091        -1.773245
 H         0.830405        -2.391905         0.408132
 H        -0.534499         1.906581         0.757447
 H        -0.547868         1.628975        -1.076742
