19
Iteration:  1840
 C        -2.942731        -1.547514         1.576753
 C        -1.816928        -0.520932         1.147497
 C        -1.953870         0.395093        -0.110168
 C        -1.652434        -0.803503        -0.985798
 C        -0.735023        -1.185399         0.203333
 O        -0.177007        -2.452315         0.394305
 C         0.349072         0.050445         0.135613
 O         1.570549        -0.002255         0.324080
 C        -0.644708         1.176150        -0.143201
 H        -3.511944        -1.940556         0.774787
 H        -2.335328        -2.298527         2.035151
 H        -3.610393        -1.122884         2.364563
 H        -1.400625        -0.184721         2.154832
 H        -2.925595         0.919891        -0.227033
 H        -2.587854        -1.378318        -1.024772
 H        -1.225594        -0.613757        -1.994040
 H         0.783416        -2.263043         0.505971
 H        -0.341259         2.123770         0.407100
 H        -0.517106         1.373772        -1.238618
