19
Iteration:  1211charge 0 multiplicity 1
 C        -2.680609        -1.474771         1.679229
 C        -1.733288        -0.423967         1.079502
 C        -2.024937         0.463350        -0.219817
 C        -1.627372        -0.902606        -1.042224
 C        -0.729663        -1.203400         0.126665
 O        -0.168167        -2.356683         0.366119
 C         0.230144        -0.055326         0.129671
 O         1.384457        -0.147560         0.484467
 C        -0.645147         1.214207        -0.098256
 H        -2.973592        -2.118627         0.667374
 H        -2.245008        -2.347551         2.203183
 H        -3.574294        -1.247443         2.337214
 H        -1.309725         0.144133         1.916594
 H        -2.998260         0.968230        -0.450158
 H        -2.533336        -1.534224        -0.994405
 H        -1.262831        -0.615970        -2.107613
 H         0.859063        -2.160862         0.300756
 H        -0.628312         1.903846         0.782286
 H        -0.405809         1.779255        -0.978896
