19
Iteration:   849charge 0 multiplicity 1
 C        -2.899913        -1.553555         1.555903
 C        -1.821621        -0.488224         1.170387
 C        -1.993164         0.424124        -0.143041
 C        -1.564319        -0.785057        -1.011436
 C        -0.616517        -1.144064         0.290015
 O        -0.191199        -2.486495         0.443436
 C         0.276169        -0.016645         0.182834
 O         1.498093        -0.038625         0.168954
 C        -0.684842         1.230124        -0.125822
 H        -3.413516        -2.184125         0.785901
 H        -2.172643        -2.128636         2.069667
 H        -3.596820        -1.049234         2.218623
 H        -1.424925        -0.075005         2.102381
 H        -2.929879         0.967679        -0.301959
 H        -2.303713        -1.530883        -1.397652
 H        -1.074010        -0.557690        -1.945835
 H         0.541060        -2.406380         1.050962
 H        -0.673499         1.885995         0.787822
 H        -0.350177         1.593983        -1.059301
