19
Iteration:  1356charge 0 multiplicity 1
 C        -2.875956        -1.561110         1.334816
 C        -1.799811        -0.510412         1.165408
 C        -2.029184         0.423975         0.008293
 C        -1.586046        -0.793920        -0.968657
 C        -0.714022        -1.151144         0.304761
 O        -0.121259        -2.333644         0.584145
 C         0.260976        -0.018108         0.129183
 O         1.480672        -0.154114         0.117868
 C        -0.638443         1.168904        -0.127443
 H        -3.244570        -2.016765         0.421182
 H        -2.423008        -2.242637         2.094391
 H        -3.784741        -1.053901         1.907874
 H        -1.481398        -0.077818         2.097392
 H        -2.934337         1.020039         0.141791
 H        -2.456158        -1.463778        -0.969227
 H        -0.997824        -0.424564        -1.800705
 H         0.776718        -2.141192         0.396476
 H        -0.431143         1.989657         0.549979
 H        -0.322523         1.626730        -1.087464
