19
Iteration:  1404charge 0 multiplicity 1
 C        -2.968166        -1.429694         1.675837
 C        -1.885017        -0.622598         1.088571
 C        -1.962323         0.386794        -0.086587
 C        -1.454184        -0.789996        -1.092590
 C        -0.674827        -1.217611         0.221252
 O        -0.216813        -2.511430         0.461546
 C         0.284038        -0.012423         0.152551
 O         1.499355         0.078966         0.135806
 C        -0.631289         1.150456        -0.000852
 H        -3.751553        -1.905564         0.936742
 H        -2.401044        -2.148675         2.314424
 H        -3.618780        -0.737159         2.299509
 H        -1.341977         0.016050         1.872779
 H        -2.771822         0.999752        -0.549199
 H        -2.180579        -1.571805        -1.327734
 H        -0.776932        -0.480378        -1.916302
 H         0.785014        -2.485756         0.653263
 H        -0.602053         2.026340         0.738976
 H        -0.500067         1.736491        -0.941929
