19
Iteration:    90charge 0 multiplicity 1
 C        -2.873721        -1.374244         1.787739
 C        -1.768400        -0.521915         1.083447
 C        -2.017948         0.441099        -0.141092
 C        -1.582385        -0.885258        -1.120713
 C        -0.700154        -1.212157         0.137766
 O        -0.060208        -2.390921         0.242717
 C         0.201405        -0.067191         0.181596
 O         1.400438        -0.132240         0.370579
 C        -0.657559         1.212216        -0.032708
 H        -2.684749        -2.457481         1.675651
 H        -2.846968        -1.161852         2.874352
 H        -3.783880        -1.077704         1.338307
 H        -1.325500         0.009098         1.929317
 H        -2.915213         0.998324        -0.205078
 H        -2.354350        -1.636823        -1.279079
 H        -0.945900        -0.624937        -2.012711
 H         0.957362        -2.306425         0.344111
 H        -0.609119         1.833729         0.828759
 H        -0.292242         1.792292        -0.925631
