19
Iteration:    61charge 0 multiplicity 1
 C        -2.795803        -1.491575         1.610368
 C        -1.702795        -0.533008         1.115413
 C        -1.996158         0.423509        -0.064847
 C        -1.756572        -0.796614        -1.005723
 C        -0.649960        -1.234308         0.085324
 O        -0.225709        -2.486802         0.381388
 C         0.345252        -0.047864         0.074707
 O         1.523959         0.004758         0.384577
 C        -0.672324         1.218555        -0.111948
 H        -2.532178        -2.556257         1.481932
 H        -3.108714        -1.133652         2.616262
 H        -3.751728        -1.310921         1.011348
 H        -1.344941         0.056984         1.988199
 H        -3.015233         0.936571        -0.058700
 H        -2.609201        -1.445736        -1.393354
 H        -1.315325        -0.521800        -1.970823
 H         0.580574        -2.553430         0.987213
 H        -0.601049         1.971030         0.729089
 H        -0.466919         1.914521        -0.949807
