19
Iteration:   296
 C        -3.054898        -1.352202         1.490407
 C        -1.773334        -0.627865         1.191970
 C        -1.941478         0.306383         0.029156
 C        -1.594374        -0.873299        -0.960154
 C        -0.628899        -1.237743         0.248400
 O        -0.094227        -2.433241         0.359640
 C         0.340928         0.084135         0.164132
 O         1.574078         0.005305         0.268719
 C        -0.742697         1.194934        -0.145599
 H        -3.670130        -1.780795         0.694827
 H        -3.164616        -2.146870         2.239865
 H        -3.587036        -0.525393         1.864739
 H        -1.516496        -0.259346         2.198339
 H        -2.944655         0.816428        -0.024168
 H        -2.522903        -1.479686        -1.139813
 H        -1.107890        -0.682382        -1.838134
 H         0.591588        -2.439954        -0.260136
 H        -0.559376         2.087924         0.393671
 H        -0.583064         1.436987        -1.257358
