19
Iteration:   577
 C        -2.915026        -1.462722         1.632743
 C        -1.820910        -0.516818         1.090559
 C        -1.999409         0.433586        -0.199158
 C        -1.595241        -0.840498        -0.990819
 C        -0.738826        -1.201342         0.214197
 O        -0.097371        -2.455064         0.394233
 C         0.295611         0.047790         0.186077
 O         1.509970        -0.095444         0.155877
 C        -0.678020         1.206932         0.018600
 H        -3.394997        -2.265946         0.968146
 H        -2.343986        -2.053120         2.383377
 H        -3.621798        -0.799269         2.168337
 H        -1.511200         0.016477         2.037795
 H        -2.988988         0.919681        -0.351823
 H        -2.377878        -1.695343        -1.191648
 H        -0.915106        -0.729520        -1.864456
 H         0.772025        -2.191828         0.754273
 H        -0.675137         1.964000         0.862533
 H        -0.259969         1.750885        -0.864797
