19
Iteration:   553charge 0 multiplicity 1
 C        -2.911476        -1.630885         1.545515
 C        -1.850827        -0.449964         1.203313
 C        -1.967948         0.413077        -0.114827
 C        -1.604320        -0.805738        -0.983332
 C        -0.637261        -1.082504         0.313290
 O        -0.267274        -2.408351         0.473289
 C         0.337412         0.067331         0.102059
 O         1.555926        -0.076845         0.131845
 C        -0.637480         1.146806        -0.094711
 H        -2.877718        -2.260146         0.612855
 H        -2.480820        -2.331452         2.243797
 H        -3.931562        -1.180613         1.794181
 H        -1.662557         0.149611         2.144454
 H        -2.934691         0.904114        -0.215642
 H        -2.257002        -1.694377        -0.914136
 H        -1.182412        -0.696065        -2.028191
 H         0.674725        -2.495661         0.467107
 H        -0.382188         1.950432         0.747444
 H        -0.459321         1.638372        -1.051255
