19
Iteration:  1192
 C        -2.739007        -1.501210         1.740001
 C        -1.764091        -0.515084         1.057617
 C        -2.008248         0.336032        -0.214173
 C        -1.674221        -0.767301        -1.209842
 C        -0.697238        -1.142733         0.061200
 O        -0.131518        -2.365335         0.429742
 C         0.257024        -0.001377         0.177022
 O         1.423567        -0.194597         0.452550
 C        -0.690891         1.193816        -0.097970
 H        -3.466723        -2.081172         1.214519
 H        -2.078678        -1.988506         2.387469
 H        -3.407706        -0.927698         2.438239
 H        -1.376121         0.140464         1.929523
 H        -2.873799         1.026164        -0.216182
 H        -2.527650        -1.476487        -1.256041
 H        -1.057484        -0.465258        -2.009424
 H         0.868797        -2.189227         0.674902
 H        -0.645209         1.961140         0.660690
 H        -0.449374         1.838186        -0.971470
