19
Iteration:  2657charge 0 multiplicity 1
 C        -2.884520        -1.537912         1.646143
 C        -1.836456        -0.540329         1.133607
 C        -1.974867         0.343997        -0.167550
 C        -1.679539        -0.744639        -1.119241
 C        -0.675461        -1.116499         0.298923
 O        -0.076148        -2.318707         0.480529
 C         0.266277        -0.021588         0.148823
 O         1.420768        -0.094055         0.433485
 C        -0.587355         1.161969        -0.335581
 H        -3.146805        -2.319394         0.978975
 H        -2.458986        -2.075027         2.548451
 H        -3.849584        -1.078249         1.927266
 H        -1.441322        -0.126576         2.008969
 H        -2.971579         0.869378        -0.282645
 H        -2.082764        -1.766202        -1.145127
 H        -1.223685        -0.594420        -2.094027
 H         0.961236        -2.264400         0.652248
 H        -0.508782         2.144082         0.067428
 H        -0.467801         1.393254        -1.400432
