19
Iteration:   834
 C        -2.882879        -1.472409         1.636584
 C        -1.869495        -0.498789         1.126972
 C        -2.002994         0.365414        -0.154466
 C        -1.480615        -0.796156        -1.002961
 C        -0.733015        -1.180164         0.244758
 O        -0.144747        -2.405394         0.441288
 C         0.268688        -0.008857         0.141430
 O         1.511696        -0.062749         0.133515
 C        -0.666659         1.147221        -0.014726
 H        -3.260070        -1.898593         0.677982
 H        -2.711617        -2.424788         2.146524
 H        -3.798244        -1.107084         2.163995
 H        -1.530294         0.174633         1.957389
 H        -2.939433         0.892556        -0.491911
 H        -2.292876        -1.596530        -1.073522
 H        -0.860539        -0.585630        -1.959130
 H         0.873768        -2.306287         0.734888
 H        -0.592619         1.825171         0.814787
 H        -0.491587         1.953889        -0.763830
