19
Iteration:  4305charge 0 multiplicity 1
 C        -2.794613        -1.491504         1.618487
 C        -1.716666        -0.501929         1.151487
 C        -1.948111         0.422830        -0.183997
 C        -1.686173        -0.938863        -1.039998
 C        -0.700029        -1.179925         0.109543
 O        -0.194021        -2.428693         0.412627
 C         0.305629         0.068901         0.088352
 O         1.404979        -0.008198         0.605907
 C        -0.671081         1.174370        -0.315341
 H        -2.933872        -2.236199         0.806981
 H        -2.549859        -1.834778         2.582337
 H        -3.715553        -1.055933         1.828342
 H        -1.118083         0.037510         1.894431
 H        -2.851865         1.009100        -0.083826
 H        -2.380663        -1.850263        -1.063173
 H        -1.221431        -0.901124        -2.067630
 H         0.762589        -2.303555         0.802297
 H        -0.546763         2.051679         0.360869
 H        -0.429948         1.543187        -1.354324
