19
Iteration:   247
 C        -2.927292        -1.461508         1.448971
 C        -1.823206        -0.537150         1.146722
 C        -2.046170         0.323302        -0.099154
 C        -1.667351        -0.794747        -0.945166
 C        -0.690463        -1.143396         0.248167
 O        -0.100162        -2.388409         0.507391
 C         0.332528         0.000694         0.099244
 O         1.531237        -0.122124         0.094723
 C        -0.608346         1.231559         0.013820
 H        -3.516700        -1.708210         0.546328
 H        -2.557058        -2.461588         1.683359
 H        -3.671695        -1.159511         2.266843
 H        -1.475440        -0.177308         2.123484
 H        -2.994547         0.856807        -0.210227
 H        -2.305608        -1.681491        -1.101167
 H        -1.087940        -0.527014        -1.899384
 H         0.768139        -2.038593         0.957465
 H        -0.504686         1.840080         0.993026
 H        -0.521231         1.912362        -0.811680
