19
Iteration:  1629charge 0 multiplicity 1
 C        -3.079272        -1.484812         1.397252
 C        -1.837130        -0.623102         1.132805
 C        -1.989163         0.376006         0.039848
 C        -1.637738        -0.865545        -0.971094
 C        -0.673168        -1.178738         0.237779
 O        -0.048242        -2.348293         0.615788
 C         0.318930         0.000401         0.036310
 O         1.540221        -0.067091         0.055263
 C        -0.589325         1.251562         0.005587
 H        -3.581380        -1.633251         0.495948
 H        -3.099477        -2.481463         1.970662
 H        -3.666029        -0.874022         2.133114
 H        -1.350847        -0.165467         2.091018
 H        -2.844821         0.984444        -0.260255
 H        -2.406576        -1.659675        -0.901799
 H        -1.366092        -0.636687        -2.057762
 H         0.904540        -2.198131         0.400893
 H        -0.273068         1.762835         0.891010
 H        -0.475722         1.950380        -0.902488
