19
Iteration:  2119charge 0 multiplicity 1
 C        -2.964091        -1.459963         1.498570
 C        -1.769579        -0.524257         1.202330
 C        -2.000130         0.458438         0.002004
 C        -1.713741        -0.825920        -0.844221
 C        -0.611851        -1.184634         0.178372
 O        -0.066067        -2.458959         0.304962
 C         0.287156        -0.024773         0.190722
 O         1.494121        -0.067881         0.256435
 C        -0.662061         1.225342        -0.195338
 H        -3.679068        -1.344183         0.761232
 H        -2.837355        -2.646345         1.476460
 H        -3.420800        -1.210687         2.442428
 H        -1.247472        -0.139140         2.090359
 H        -2.932912         0.989597        -0.020683
 H        -2.453026        -1.635659        -0.884374
 H        -1.138027        -0.791651        -1.782980
 H         0.930265        -2.196100         0.478855
 H        -0.411705         2.035130         0.533922
 H        -0.581073         1.511496        -1.328803
