19
Iteration:  4716
 C        -3.027115        -1.421380         1.469155
 C        -1.900708        -0.536636         1.116038
 C        -1.999819         0.341586        -0.133293
 C        -1.560035        -0.928373        -0.937966
 C        -0.645239        -1.227135         0.275177
 O         0.033880        -2.437685         0.554726
 C         0.269200         0.034503         0.104835
 O         1.496065        -0.032196         0.101172
 C        -0.634944         1.213078        -0.008341
 H        -3.533688        -1.960471         0.789444
 H        -2.767028        -1.867720         2.464569
 H        -3.793521        -0.624851         1.700747
 H        -1.761971         0.171561         1.835400
 H        -2.941765         0.886391        -0.477356
 H        -2.544687        -1.431695        -1.215757
 H        -1.168980        -1.029590        -1.806993
 H         0.861578        -2.033538         0.650715
 H        -0.512726         1.959629         0.900350
 H        -0.458768         1.845861        -0.825077
