19
Iteration:   430charge 0 multiplicity 1
 C        -3.089839        -1.382822         1.630167
 C        -1.758134        -0.582520         1.187221
 C        -2.053837         0.299200        -0.054851
 C        -1.592061        -0.866221        -1.038341
 C        -0.612065        -1.213298         0.043215
 O        -0.098737        -2.460888         0.424968
 C         0.326460        -0.009740         0.113079
 O         1.536820         0.027920         0.340650
 C        -0.660564         1.201439        -0.118796
 H        -3.622397        -1.590182         0.722721
 H        -2.830097        -2.244641         2.253042
 H        -3.614779        -0.547122         2.153427
 H        -1.408263         0.071756         2.023111
 H        -3.000385         0.876927        -0.202711
 H        -2.259495        -1.676774        -1.236404
 H        -1.170196        -0.526526        -1.981244
 H         0.890001        -2.358165         0.262962
 H        -0.352372         1.816030         0.774669
 H        -0.493958         1.861105        -1.018610
