19
Iteration:  1123charge 0 multiplicity 1
 C        -3.091510        -1.456552         1.450279
 C        -1.715328        -0.561012         1.187707
 C        -1.997492         0.445202         0.010683
 C        -1.671568        -0.912920        -0.873915
 C        -0.549484        -1.185654         0.204259
 O        -0.041191        -2.469264         0.348773
 C         0.306709        -0.002913         0.093851
 O         1.533021         0.002401         0.228583
 C        -0.721660         1.183108        -0.086824
 H        -3.696781        -1.509081         0.508527
 H        -2.953029        -2.146912         2.212272
 H        -3.737430        -0.657126         1.810543
 H        -1.373460         0.114300         2.021132
 H        -3.031459         0.799452        -0.050463
 H        -2.497783        -1.594098        -0.889089
 H        -1.158394        -0.674153        -1.883076
 H         0.812079        -2.507252         0.692249
 H        -0.596538         1.993317         0.659143
 H        -0.478798         1.648637        -1.015261
