19
Iteration:  2008charge 0 multiplicity 1
 C        -2.798800        -1.543311         1.518658
 C        -1.759728        -0.535652         1.193182
 C        -2.027036         0.497015        -0.123634
 C        -1.776932        -0.804064        -0.997853
 C        -0.681605        -1.167358         0.201903
 O        -0.118953        -2.418990         0.439640
 C         0.289725        -0.029298         0.130688
 O         1.499613        -0.124410         0.315631
 C        -0.651867         1.263998        -0.162436
 H        -2.821262        -2.371791         0.774371
 H        -2.529759        -1.955532         2.499441
 H        -3.766408        -1.114133         1.600602
 H        -1.334129        -0.275521         2.189413
 H        -2.972917         1.041587        -0.087739
 H        -2.627438        -1.501576        -1.013022
 H        -1.410994        -0.663290        -2.001960
 H         0.816895        -2.377431         0.319087
 H        -0.497725         2.039537         0.649374
 H        -0.209423         1.809716        -1.000235
