19
Iteration:  1927charge 0 multiplicity 1
 C        -3.035354        -1.408686         1.646935
 C        -1.879699        -0.523836         1.074283
 C        -1.953809         0.390011        -0.154993
 C        -1.468350        -0.924077        -1.043826
 C        -0.723330        -1.212087         0.224039
 O        -0.053651        -2.445473         0.482971
 C         0.286554        -0.006787         0.170274
 O         1.489266        -0.005667         0.046263
 C        -0.682434         1.188429         0.128290
 H        -3.474529        -1.988580         0.838820
 H        -2.934660        -2.210161         2.360342
 H        -3.832596        -0.725185         2.092888
 H        -1.278442         0.059991         1.691276
 H        -2.826458         1.100589        -0.112707
 H        -2.281279        -1.639242        -1.238198
 H        -0.839325        -0.638134        -1.937588
 H         0.759435        -2.260962        -0.002445
 H        -0.629909         1.748290         1.125580
 H        -0.289772         1.845877        -0.690695
