19
Iteration:  1621
 C        -3.112052        -1.494541         1.331800
 C        -1.837048        -0.592516         1.213203
 C        -1.947082         0.408679         0.066829
 C        -1.699331        -0.878580        -0.910041
 C        -0.637526        -1.194852         0.139084
 O         0.000591        -2.333391         0.635324
 C         0.306611         0.021831         0.027212
 O         1.515991        -0.051572         0.080175
 C        -0.572949         1.189000        -0.030400
 H        -3.658097        -1.622056         0.390724
 H        -2.870805        -2.506068         1.883412
 H        -3.701058        -0.653230         1.978857
 H        -1.608268        -0.326365         2.237100
 H        -2.931565         0.856780        -0.113378
 H        -2.559691        -1.550724        -0.890129
 H        -1.423966        -0.737185        -1.958518
 H         0.826867        -2.275352         0.198468
 H        -0.247931         1.845963         0.801942
 H        -0.226417         1.733911        -0.887494
