19
Iteration:  3322
 C        -2.906071        -1.602448         1.420924
 C        -1.910095        -0.505388         1.142784
 C        -2.039562         0.373892        -0.141469
 C        -1.613289        -0.774394        -1.049179
 C        -0.687408        -1.169184         0.348189
 O        -0.088000        -2.382846         0.809850
 C         0.276233         0.054677         0.079126
 O         1.529446        -0.098099        -0.002223
 C        -0.589114         1.224751        -0.070071
 H        -3.643064        -1.458832         0.565143
 H        -2.518938        -2.615099         1.285763
 H        -3.576985        -1.478017         2.252584
 H        -1.563253        -0.064292         2.164679
 H        -2.950182         0.974665        -0.364678
 H        -2.342115        -1.599926        -1.245956
 H        -0.932909        -0.469804        -1.880866
 H         0.795724        -2.213621         1.047393
 H        -0.745299         1.952272         0.689674
 H        -0.089560         1.559293        -1.055538
