19
Iteration:  1855
 C        -2.879604        -1.604982         1.471139
 C        -1.846683        -0.535355         1.203024
 C        -1.981273         0.532176        -0.063788
 C        -1.701442        -0.839417        -0.868218
 C        -0.621871        -1.120238         0.303373
 O        -0.148685        -2.437693         0.403807
 C         0.276030        -0.023962         0.136596
 O         1.461529        -0.032517         0.274990
 C        -0.531261         1.205071        -0.262550
 H        -3.502539        -2.050923         0.564509
 H        -2.589951        -2.596048         1.870278
 H        -3.616800        -1.113640         2.068593
 H        -1.617897         0.047711         2.059703
 H        -2.802429         1.219233        -0.307334
 H        -2.395593        -1.653170        -0.774183
 H        -1.273010        -0.798545        -1.852675
 H         0.874231        -2.475001         0.284389
 H        -0.490173         1.993203         0.495625
 H        -0.294114         1.707715        -1.161140
