19
Iteration:  3105charge 0 multiplicity 1
 C        -2.972170        -1.522988         1.576636
 C        -1.853919        -0.448049         1.162474
 C        -1.940425         0.313403        -0.262351
 C        -1.637181        -0.975737        -0.898987
 C        -0.652048        -1.170874         0.198920
 O        -0.156881        -2.437608         0.429486
 C         0.318938         0.061943         0.235926
 O         1.562816         0.111227         0.349204
 C        -0.625387         1.175955        -0.213887
 H        -3.848652        -1.495016         0.779455
 H        -2.546283        -2.545391         1.874479
 H        -3.546339        -1.297706         2.473573
 H        -1.462816         0.229120         1.949373
 H        -2.887226         0.792363        -0.575628
 H        -2.553907        -1.546637        -0.831633
 H        -1.437565        -1.063784        -1.971366
 H         0.809915        -2.397963         0.354593
 H        -0.490681         2.116371         0.390286
 H        -0.315741         1.346714        -1.340995
