19
Iteration:  1760
 C        -2.947878        -1.407600         1.648157
 C        -1.861665        -0.550348         1.140822
 C        -1.965218         0.385837        -0.038406
 C        -1.711164        -0.835754        -0.894686
 C        -0.672945        -1.178562         0.156122
 O        -0.010279        -2.348237         0.167115
 C         0.306115        -0.045002         0.181400
 O         1.484384        -0.096636         0.494693
 C        -0.642863         1.136390        -0.291573
 H        -3.333397        -2.211881         1.054087
 H        -2.620910        -1.935914         2.636109
 H        -3.805855        -0.754457         1.754675
 H        -1.390354         0.053696         2.027366
 H        -2.818672         1.028441        -0.142250
 H        -2.434399        -1.698996        -0.919631
 H        -1.225749        -0.649434        -1.911450
 H         0.844449        -2.139353         0.486248
 H        -0.360300         2.049808         0.208845
 H        -0.626266         1.427334        -1.465164
