19
Iteration:  4774charge 0 multiplicity 1
 C        -2.896573        -1.460099         1.531856
 C        -1.785803        -0.473921         1.154405
 C        -2.013812         0.419533        -0.111185
 C        -1.588160        -0.852522        -1.057242
 C        -0.627482        -1.260625         0.186641
 O        -0.136969        -2.459965         0.562379
 C         0.260071         0.033946         0.170966
 O         1.477649        -0.013284         0.320976
 C        -0.696266         1.189950        -0.277626
 H        -3.340797        -2.159897         0.742680
 H        -2.375397        -2.234175         2.096174
 H        -3.588894        -1.043239         2.269979
 H        -1.458114        -0.069664         2.080739
 H        -2.853781         1.039650        -0.278729
 H        -2.394668        -1.525125        -0.813911
 H        -1.124941        -0.674389        -2.035485
 H         0.863717        -2.453952         0.504283
 H        -0.686791         1.985032         0.543047
 H        -0.452611         1.667493        -1.273889
