19
Iteration:  1201charge 0 multiplicity 1
 C        -2.672116        -1.496737         1.731672
 C        -1.789211        -0.461264         1.157210
 C        -2.020160         0.420877        -0.215353
 C        -1.682709        -0.845745        -1.180484
 C        -0.736461        -1.132405         0.027212
 O        -0.138345        -2.370971         0.430025
 C         0.245764         0.007978         0.157721
 O         1.429331        -0.199401         0.476719
 C        -0.690104         1.199098        -0.082787
 H        -3.255210        -2.035133         0.838145
 H        -2.140901        -2.236664         2.317503
 H        -3.447952        -0.934760         2.326154
 H        -1.148331         0.053564         1.908859
 H        -2.900879         1.039480        -0.523362
 H        -2.398745        -1.641560        -1.457217
 H        -1.149817        -0.726040        -2.179109
 H         0.866857        -2.132197         0.420247
 H        -0.794234         1.854037         0.792018
 H        -0.290335         1.694184        -0.948384
