19
Iteration:  1859charge 0 multiplicity 1
 C        -2.897985        -1.606516         1.446194
 C        -1.813156        -0.500836         1.187746
 C        -1.968960         0.518182        -0.078408
 C        -1.679307        -0.843377        -0.827736
 C        -0.649994        -1.135613         0.313996
 O        -0.138654        -2.409795         0.416064
 C         0.249312        -0.018913         0.126307
 O         1.452875        -0.054676         0.257776
 C        -0.527848         1.190457        -0.253601
 H        -3.277864        -1.934914         0.522571
 H        -2.528241        -2.690233         1.798340
 H        -3.770586        -1.185392         2.036515
 H        -1.572651         0.013184         2.164205
 H        -2.896925         1.103173        -0.138581
 H        -2.409613        -1.670067        -0.676354
 H        -1.284265        -0.672468        -1.883715
 H         0.792938        -2.429234         0.270110
 H        -0.542480         1.954665         0.498774
 H        -0.218610         1.818799        -1.204891
