19
Iteration:  4221charge 0 multiplicity 1
 C        -2.982995        -1.355596         1.609521
 C        -1.877463        -0.501004         1.139872
 C        -1.966681         0.302349        -0.171622
 C        -1.571474        -0.935673        -1.034617
 C        -0.657532        -1.226330         0.189955
 O        -0.047807        -2.447123         0.428281
 C         0.287905        -0.006187         0.184389
 O         1.507544         0.054980         0.315160
 C        -0.687165         1.164849        -0.104953
 H        -3.631194        -1.714690         0.689419
 H        -2.715142        -2.353833         1.934718
 H        -3.635016        -0.727910         2.284840
 H        -1.502698         0.067106         2.037541
 H        -2.890574         0.759740        -0.408169
 H        -2.408584        -1.639825        -1.301829
 H        -0.940918        -0.626193        -1.914611
 H         0.802061        -2.146111         0.859148
 H        -0.599764         1.986058         0.514580
 H        -0.500727         1.473294        -1.198598
