19
Iteration:    39charge 0 multiplicity 1
 C        -2.846336        -1.612978         1.508284
 C        -1.765417        -0.546166         1.250953
 C        -1.891396         0.415376         0.005797
 C        -1.666839        -0.804674        -0.876186
 C        -0.670477        -1.116434         0.154530
 O        -0.334361        -2.437870         0.312993
 C         0.318379         0.050665         0.147121
 O         1.507053         0.030549         0.310124
 C        -0.575214         1.163274        -0.212886
 H        -2.258717        -2.550260         1.498289
 H        -3.400460        -1.257088         2.407625
 H        -3.624632        -1.641469         0.694208
 H        -1.450533        -0.187065         2.257130
 H        -2.813564         1.034727        -0.207648
 H        -2.534477        -1.556549        -0.794691
 H        -1.469368        -0.870303        -1.942522
 H         0.552638        -2.557261         0.574727
 H        -0.415491         2.190382         0.213849
 H        -0.318818         1.442532        -1.260940
