19
Iteration:  1122
 C        -3.094577        -1.451249         1.452810
 C        -1.721260        -0.561438         1.184366
 C        -1.988778         0.435300         0.017546
 C        -1.671798        -0.907361        -0.882550
 C        -0.554046        -1.187649         0.207768
 O        -0.038244        -2.467859         0.352993
 C         0.304819        -0.002723         0.088455
 O         1.531772         0.002111         0.225526
 C        -0.720487         1.188628        -0.088504
 H        -3.693440        -1.538771         0.474242
 H        -2.969693        -2.182581         2.233869
 H        -3.741676        -0.670214         1.839092
 H        -1.371666         0.092568         2.015415
 H        -3.005392         0.786573        -0.042831
 H        -2.504745        -1.580794        -0.883226
 H        -1.164146        -0.652019        -1.890747
 H         0.833825        -2.511744         0.722316
 H        -0.595602         1.996650         0.658329
 H        -0.456951         1.659091        -1.005675
