19
Iteration:  4487
 C        -2.961739        -1.493361         1.662144
 C        -1.794273        -0.567995         1.149728
 C        -1.957260         0.363700        -0.230283
 C        -1.530695        -0.847742        -1.073796
 C        -0.695765        -1.175560         0.266941
 O        -0.171317        -2.382835         0.512102
 C         0.300781         0.022710         0.118829
 O         1.522068         0.000063         0.257087
 C        -0.655407         1.151632        -0.159549
 H        -3.375810        -2.062600         0.996258
 H        -2.536316        -1.981372         2.541585
 H        -3.825520        -0.905512         1.958571
 H        -1.593600         0.109508         2.049418
 H        -2.893102         0.959658        -0.454802
 H        -2.416928        -1.541226        -1.090738
 H        -1.045529        -0.807557        -2.088256
 H         0.733966        -2.573261         0.214622
 H        -0.805992         1.780527         0.773944
 H        -0.452815         1.819913        -0.876460
