19
Iteration:  2600charge 0 multiplicity 1
 C        -2.919914        -1.300363         1.613738
 C        -1.789714        -0.511116         1.143456
 C        -2.011497         0.302718        -0.159832
 C        -1.687266        -0.996326        -0.992109
 C        -0.635030        -1.218200         0.128170
 O        -0.110957        -2.505646         0.279027
 C         0.329924         0.070878         0.145871
 O         1.509384         0.097398         0.476701
 C        -0.653266         1.143508        -0.153308
 H        -2.677897        -2.283245         1.416728
 H        -3.220076        -1.056002         2.727866
 H        -3.775655        -0.956029         0.956737
 H        -1.235689        -0.066234         1.907672
 H        -2.964668         0.770960        -0.327200
 H        -2.490430        -1.699313        -0.784564
 H        -1.155080        -1.075371        -1.996852
 H         0.683142        -2.330463         0.885895
 H        -0.802106         1.792743         0.681304
 H        -0.467185         1.656016        -1.134133
