19
Iteration:  1378charge 0 multiplicity 1
 C        -2.954876        -1.579655         1.405160
 C        -1.769511        -0.522363         1.207180
 C        -1.962635         0.408203        -0.108521
 C        -1.683121        -0.859179        -0.936043
 C        -0.643379        -1.142063         0.258687
 O        -0.242091        -2.435179         0.555158
 C         0.358184         0.038798         0.072871
 O         1.559517        -0.021901         0.123041
 C        -0.624270         1.217706        -0.029493
 H        -3.205944        -1.878937         0.448823
 H        -2.556078        -2.402172         2.041220
 H        -3.861763        -1.095857         1.955677
 H        -1.367567         0.062276         1.984893
 H        -2.843358         1.020642        -0.369401
 H        -2.455304        -1.594613        -0.760513
 H        -1.227232        -0.723291        -1.906173
 H         0.794416        -2.473006         0.605365
 H        -0.786501         1.916063         0.756507
 H        -0.349079         1.858821        -0.906507
