19
Iteration:   742charge 0 multiplicity 1
 C        -2.933138        -1.487284         1.522870
 C        -1.858542        -0.552748         1.128206
 C        -1.958535         0.376682        -0.116420
 C        -1.627426        -0.852673        -0.926152
 C        -0.673454        -1.149131         0.260102
 O        -0.166443        -2.435631         0.401788
 C         0.306625         0.061696         0.244550
 O         1.528480        -0.067971         0.159569
 C        -0.633174         1.244146        -0.129851
 H        -3.187357        -2.228785         0.711607
 H        -2.377858        -2.136008         2.312383
 H        -3.818966        -1.157623         2.079929
 H        -1.520570         0.054113         2.021499
 H        -2.854801         0.979494        -0.138985
 H        -2.419657        -1.635749        -0.936321
 H        -1.093200        -0.684618        -1.875047
 H         0.827438        -2.577610         0.519484
 H        -0.657782         2.025919         0.710193
 H        -0.295610         1.845003        -1.052218
