19
Iteration:   235charge 0 multiplicity 1
 C        -2.884226        -1.575647         1.505810
 C        -1.785086        -0.527591         1.156696
 C        -2.009564         0.466543        -0.125944
 C        -1.566706        -0.858063        -1.058587
 C        -0.641417        -1.105048         0.228706
 O        -0.147633        -2.349582         0.532700
 C         0.289163         0.037698         0.163926
 O         1.511964        -0.220233         0.071311
 C        -0.735702         1.260885         0.024473
 H        -3.579668        -1.654608         0.655329
 H        -2.447839        -2.522081         1.869467
 H        -3.500137        -1.106213         2.363586
 H        -1.329091         0.051949         1.992825
 H        -2.956146         1.044971        -0.351624
 H        -2.443374        -1.632691        -1.143818
 H        -1.174849        -0.634987        -2.136419
 H         0.663109        -2.436551         1.066379
 H        -0.863507         1.717528         1.058866
 H        -0.328830         2.015634        -0.647822
