19
Iteration:  2903
 C        -2.899235        -1.323749         1.596851
 C        -1.796093        -0.464962         1.172716
 C        -2.021629         0.325272        -0.140077
 C        -1.554979        -0.920722        -0.987991
 C        -0.631330        -1.237800         0.147359
 O        -0.012860        -2.390511         0.398739
 C         0.287441        -0.005329         0.106849
 O         1.397565         0.028868         0.628263
 C        -0.724108         1.067905        -0.461773
 H        -3.441938        -0.947327         2.548482
 H        -3.795059        -1.242705         0.917715
 H        -2.715910        -2.449399         1.703453
 H        -1.425498         0.032241         2.072985
 H        -3.006108         0.706531        -0.220443
 H        -2.306729        -1.737168        -1.011076
 H        -1.098845        -0.788390        -1.955862
 H         0.828907        -2.272860         0.850685
 H        -0.641635         2.040984         0.145136
 H        -0.604713         1.272932        -1.543547
