19
Iteration:  2572charge 0 multiplicity 1
 C        -3.025343        -1.440934         1.685053
 C        -1.821343        -0.572546         1.161520
 C        -2.009197         0.411608        -0.115078
 C        -1.532139        -0.824870        -1.002310
 C        -0.639356        -1.179218         0.198047
 O        -0.095248        -2.485940         0.361958
 C         0.264977         0.019693         0.167329
 O         1.471682         0.036306         0.362920
 C        -0.626832         1.137761        -0.281869
 H        -2.674439        -2.513489         1.931260
 H        -3.447336        -0.926414         2.498808
 H        -3.739383        -1.442017         0.885760
 H        -1.262327        -0.112029         2.073516
 H        -3.009466         0.947569        -0.255065
 H        -2.311713        -1.571084        -1.240648
 H        -0.878842        -0.769550        -1.838595
 H         0.839125        -2.288871         0.584621
 H        -0.609082         1.944491         0.475446
 H        -0.395316         1.421721        -1.325153
