19
Iteration:  2461charge 0 multiplicity 1
 C        -3.083314        -1.430884         1.453698
 C        -1.827363        -0.555318         1.210835
 C        -1.960130         0.385349        -0.024514
 C        -1.517033        -0.916043        -0.933093
 C        -0.658550        -1.127867         0.315579
 O        -0.132866        -2.474312         0.484643
 C         0.330625         0.028239         0.121790
 O         1.534585         0.010366         0.024996
 C        -0.669847         1.201345        -0.045495
 H        -3.831354        -0.993119         2.093772
 H        -3.503126        -1.618556         0.442775
 H        -2.859969        -2.439381         1.876236
 H        -1.314718        -0.302919         2.192234
 H        -2.951740         0.855410        -0.241598
 H        -2.224879        -1.735015        -0.955818
 H        -1.112084        -0.466886        -1.800417
 H         0.877649        -2.443556         0.365524
 H        -0.592765         1.866913         0.819005
 H        -0.420301         1.797488        -0.994478
