19
Iteration:  4978
 C        -2.901791        -1.490298         1.452376
 C        -1.864998        -0.473258         1.108206
 C        -2.008077         0.352115        -0.111718
 C        -1.553390        -0.859197        -0.950518
 C        -0.664177        -1.190842         0.262938
 O        -0.099078        -2.377032         0.657359
 C         0.285306         0.055372         0.103788
 O         1.479914        -0.109706         0.083268
 C        -0.662756         1.219199        -0.074783
 H        -3.277501        -1.761408         0.520239
 H        -2.614217        -2.431656         2.006850
 H        -3.769759        -1.001692         2.131698
 H        -1.554281         0.103051         2.008657
 H        -3.036586         0.633948        -0.555552
 H        -2.376585        -1.731438        -1.085134
 H        -0.883102        -0.607548        -1.854692
 H         0.927416        -2.257595         0.637140
 H        -0.597820         1.747326         0.963160
 H        -0.606791         1.852328        -0.965447
