19
Iteration:  3716
 C        -2.969949        -1.338578         1.639994
 C        -1.776055        -0.562549         1.188038
 C        -1.968882         0.354468        -0.138477
 C        -1.667824        -0.885065        -0.961755
 C        -0.691137        -1.238820         0.198432
 O        -0.009745        -2.486188         0.287914
 C         0.261546         0.018987         0.166120
 O         1.438144         0.045217         0.503336
 C        -0.630506         1.162093        -0.280867
 H        -3.260509        -2.095756         0.867514
 H        -2.731076        -1.897355         2.663138
 H        -3.797480        -0.574646         1.651550
 H        -1.327767         0.104172         2.026437
 H        -2.914325         0.832608        -0.494348
 H        -2.576714        -1.526616        -1.013810
 H        -1.119777        -1.088902        -1.898101
 H         0.863540        -2.022764         0.286605
 H        -0.498200         2.186348         0.054486
 H        -0.312934         1.123792        -1.392696
