19
Iteration:  2800charge 0 multiplicity 1
 C        -2.931585        -1.516113         1.506831
 C        -1.882191        -0.485324         1.040445
 C        -2.036948         0.379141        -0.218589
 C        -1.582520        -0.893433        -1.031942
 C        -0.690875        -1.143937         0.237833
 O        -0.007788        -2.310068         0.714341
 C         0.253199        -0.005923         0.121623
 O         1.478579        -0.108053         0.240381
 C        -0.644491         1.184066        -0.123911
 H        -3.885056        -0.931290         1.721304
 H        -3.134049        -2.249192         0.718458
 H        -2.638347        -2.056807         2.388977
 H        -1.458814        -0.010533         1.908744
 H        -2.967541         0.922909        -0.639214
 H        -2.500833        -1.538605        -0.976996
 H        -1.055796        -1.080134        -2.024842
 H         0.925684        -2.026784         0.812661
 H        -0.254047         1.816850         0.646184
 H        -0.514189         1.737131        -1.072426
