19
Iteration:  1558
 C        -2.865369        -1.482932         1.685233
 C        -1.889008        -0.532918         1.109422
 C        -1.949478         0.390014        -0.238993
 C        -1.500422        -0.886818        -1.094368
 C        -0.745273        -1.156698         0.221628
 O        -0.178816        -2.460172         0.372710
 C         0.294872         0.029807         0.158720
 O         1.517263        -0.022505         0.215992
 C        -0.646620         1.243352         0.020022
 H        -3.449097        -2.113123         0.972280
 H        -2.525823        -2.134930         2.398929
 H        -3.503170        -0.954991         2.290868
 H        -1.586333         0.050545         1.973814
 H        -2.910765         0.863530        -0.433197
 H        -2.402078        -1.489157        -1.146313
 H        -0.975569        -0.841803        -2.017334
 H         0.522131        -2.479429         0.996324
 H        -0.732633         1.719512         1.050688
 H        -0.370288         1.971314        -0.718073
