19
Iteration:  2083charge 0 multiplicity 1
 C        -2.909416        -1.415491         1.656948
 C        -1.675335        -0.564698         1.177344
 C        -2.006035         0.370919        -0.055142
 C        -1.652524        -0.858961        -0.976939
 C        -0.699757        -1.191977         0.132417
 O        -0.163571        -2.474899         0.231481
 C         0.302957        -0.038234         0.124208
 O         1.488221         0.110831         0.339351
 C        -0.606547         1.116824        -0.138021
 H        -3.653268        -1.413777         0.789115
 H        -2.757408        -2.407560         2.057567
 H        -3.418937        -0.782568         2.384406
 H        -1.244571        -0.117702         2.018824
 H        -2.934417         0.950672        -0.246732
 H        -2.346945        -1.703064        -1.138575
 H        -1.166504        -0.634408        -1.940588
 H         0.308379        -2.562789         1.133771
 H        -0.532330         1.760422         0.824836
 H        -0.619736         1.829058        -0.935839
