19
Iteration:   945
 C        -2.990475        -1.316727         1.771244
 C        -1.843040        -0.542577         1.139075
 C        -2.056273         0.348380        -0.154927
 C        -1.568510        -0.836472        -1.034286
 C        -0.705942        -1.231516         0.108372
 O         0.053026        -2.338346         0.239728
 C         0.281884        -0.045086         0.090600
 O         1.469519        -0.134428         0.423280
 C        -0.696097         1.166210        -0.085093
 H        -3.610143        -2.053783         1.098925
 H        -2.396716        -1.959274         2.430371
 H        -3.559837        -0.565909         2.388280
 H        -1.283894         0.074757         1.887704
 H        -3.062957         0.764099        -0.320035
 H        -2.338893        -1.684745        -1.274579
 H        -1.219982        -0.677213        -2.093531
 H         0.998424        -2.163025         0.672944
 H        -0.495468         1.803490         0.802440
 H        -0.583829         1.629853        -1.086127
