19
Iteration:  2214charge 0 multiplicity 1
 C        -3.015034        -1.522161         1.532256
 C        -1.859060        -0.603795         1.144208
 C        -1.929663         0.446537         0.043893
 C        -1.601449        -0.768382        -0.887141
 C        -0.589721        -1.178716         0.287236
 O        -0.220687        -2.483669         0.436545
 C         0.375000        -0.000729         0.151845
 O         1.571422         0.036028         0.037431
 C        -0.653873         1.224957        -0.148286
 H        -3.614664        -1.803288         0.566400
 H        -2.633426        -2.500739         1.858734
 H        -3.647374        -1.220431         2.340967
 H        -1.613069        -0.136103         2.130494
 H        -2.873113         0.985229        -0.073769
 H        -2.483927        -1.451094        -0.862035
 H        -1.238439        -0.630719        -1.910253
 H         0.760018        -2.717429         0.446256
 H        -0.448409         1.966646         0.677172
 H        -0.663944         1.615884        -1.111074
