19
Iteration:  3047charge 0 multiplicity 1
 C        -3.088499        -1.422401         1.385790
 C        -1.740111        -0.609242         1.128323
 C        -1.937551         0.351146        -0.189113
 C        -1.581773        -0.896356        -1.073971
 C        -0.679420        -1.172578         0.297806
 O         0.046948        -2.275168         0.817409
 C         0.240245        -0.012127         0.141411
 O         1.452672        -0.106521         0.037059
 C        -0.726140         1.204217        -0.075792
 H        -3.993184        -1.128326         0.909343
 H        -3.023197        -2.581376         1.118325
 H        -3.192824        -1.321549         2.530082
 H        -1.380155        -0.204886         2.060504
 H        -2.908257         0.818140         0.035546
 H        -2.371665        -1.621832        -1.207377
 H        -0.987988        -0.614393        -1.946886
 H         0.966209        -2.141627         0.659524
 H        -0.740416         1.880096         0.877706
 H        -0.334893         1.824454        -0.941635
