19
Iteration:  3521charge 0 multiplicity 1
 C        -2.943839        -1.333310         1.572540
 C        -1.779632        -0.463480         1.072795
 C        -1.945839         0.336842        -0.173203
 C        -1.606208        -0.888180        -1.000430
 C        -0.601234        -1.223344         0.240278
 O        -0.039953        -2.462985         0.470584
 C         0.234003         0.008155         0.156385
 O         1.411604         0.000313         0.394490
 C        -0.708343         1.100977        -0.209907
 H        -3.228462        -2.156803         0.787391
 H        -2.577543        -1.921321         2.477345
 H        -3.799779        -0.733255         1.911247
 H        -1.226361         0.096575         1.937089
 H        -2.906774         0.792094        -0.436432
 H        -2.540503        -1.542675        -1.137247
 H        -1.210144        -0.643324        -2.064064
 H         0.923718        -2.348469         0.335053
 H        -0.732326         1.758541         0.707504
 H        -0.569162         1.760766        -1.115441
