19
Iteration:   828charge 0 multiplicity 1
 C        -2.929722        -1.474244         1.630959
 C        -1.861328        -0.501984         1.140167
 C        -1.985548         0.340190        -0.171529
 C        -1.495207        -0.858295        -1.003614
 C        -0.690403        -1.142989         0.256502
 O        -0.130653        -2.404477         0.443642
 C         0.282435         0.000828         0.115740
 O         1.490503        -0.075546         0.128098
 C        -0.652832         1.179587         0.046799
 H        -3.402327        -1.923946         0.723894
 H        -2.594309        -2.400437         2.139729
 H        -3.708521        -0.808628         2.028016
 H        -1.602772         0.143097         1.969822
 H        -2.857982         0.952027        -0.362658
 H        -2.248060        -1.553652        -1.388384
 H        -1.028154        -0.736607        -1.941295
 H         0.734705        -1.992566         0.483253
 H        -0.616268         1.788777         1.007562
 H        -0.576642         1.804747        -0.850197
