19
Iteration:  1483
 C        -2.888752        -1.439692         1.523828
 C        -1.689884        -0.509619         1.160074
 C        -1.946315         0.459362        -0.012258
 C        -1.851520        -0.831996        -0.922213
 C        -0.714462        -1.185078         0.187334
 O         0.003619        -2.402009         0.279457
 C         0.286107        -0.027132         0.109123
 O         1.436369        -0.067026         0.553838
 C        -0.620699         1.119603        -0.315467
 H        -3.203431        -2.291645         0.716369
 H        -2.682891        -2.116566         2.349168
 H        -3.821251        -0.992496         1.806427
 H        -1.307715        -0.017802         2.146672
 H        -2.928991         0.924191        -0.087156
 H        -2.777826        -1.417836        -1.100886
 H        -1.418281        -0.716776        -1.934656
 H         0.925640        -2.159764         0.484668
 H        -0.313818         2.155909         0.075056
 H        -0.536557         1.226463        -1.406307
