19
Iteration:   991
 C        -2.919985        -1.423275         1.519914
 C        -1.769271        -0.549521         1.178416
 C        -1.962227         0.398885        -0.030654
 C        -1.636809        -0.912594        -0.903022
 C        -0.656480        -1.174731         0.192838
 O        -0.140579        -2.425541         0.334692
 C         0.294630         0.025599         0.120526
 O         1.503138         0.018429         0.312332
 C        -0.668434         1.135821        -0.170351
 H        -3.496623        -2.116075         0.738815
 H        -2.773980        -2.068105         2.362864
 H        -3.685026        -0.611210         1.860822
 H        -1.327117        -0.075553         2.104866
 H        -2.843885         0.979998         0.013729
 H        -2.425029        -1.651484        -1.147661
 H        -1.122267        -0.731287        -1.905318
 H         0.869507        -2.595642         0.280295
 H        -0.724990         1.869906         0.691629
 H        -0.581098         1.626222        -1.106001
