19
Iteration:  1366charge 0 multiplicity 1
 C        -2.822684        -1.522737         1.328375
 C        -1.804556        -0.497997         1.183018
 C        -1.970234         0.419650        -0.013251
 C        -1.663552        -0.862385        -0.899608
 C        -0.657796        -1.101660         0.250453
 O        -0.194172        -2.338625         0.572134
 C         0.292430        -0.011468         0.151676
 O         1.512078        -0.096362         0.110011
 C        -0.638515         1.172241        -0.067139
 H        -3.291554        -2.035233         0.458376
 H        -2.572773        -2.416566         1.905906
 H        -3.769916        -1.045022         1.752812
 H        -1.614495        -0.198476         2.167139
 H        -2.875897         0.993980        -0.273308
 H        -2.361254        -1.684351        -1.154302
 H        -1.369992        -0.759382        -1.952920
 H         0.743416        -2.355412         0.477649
 H        -0.333753         1.840362         0.722913
 H        -0.595036         1.591847        -1.075841
