19
Iteration:  2463
 C        -3.080276        -1.438166         1.448898
 C        -1.831797        -0.553883         1.236993
 C        -1.949116         0.388160        -0.021482
 C        -1.500249        -0.907925        -0.944822
 C        -0.662000        -1.111704         0.305962
 O        -0.137569        -2.487877         0.488302
 C         0.338875         0.056668         0.140459
 O         1.534255        -0.003163         0.019422
 C        -0.694714         1.188990        -0.066184
 H        -3.892370        -1.023194         2.157546
 H        -3.554184        -1.585989         0.553102
 H        -2.834047        -2.423041         1.810472
 H        -1.365202        -0.343190         2.136079
 H        -2.919488         0.915717        -0.257445
 H        -2.164931        -1.763712        -0.976265
 H        -1.112782        -0.463194        -1.773917
 H         0.905302        -2.435819         0.342811
 H        -0.533394         1.867978         0.811992
 H        -0.457781         1.760175        -0.988961
