19
Iteration:  2893charge 0 multiplicity 1
 C        -3.000143        -1.302546         1.622049
 C        -1.761619        -0.578741         1.129063
 C        -1.946615         0.318887        -0.149122
 C        -1.673631        -0.992998        -1.012006
 C        -0.588020        -1.199902         0.108159
 O        -0.006972        -2.452572         0.409556
 C         0.269434         0.053273         0.127157
 O         1.385916         0.115645         0.613832
 C        -0.632970         1.102780        -0.420417
 H        -3.185724        -0.979397         2.643398
 H        -3.885259        -1.453131         0.939586
 H        -2.544030        -2.356392         1.705954
 H        -1.366443        -0.028303         2.011427
 H        -2.815386         0.885890        -0.376133
 H        -2.522201        -1.684921        -0.863417
 H        -1.437425        -0.920952        -2.051447
 H         0.467871        -2.249726         1.190985
 H        -0.443274         2.060613         0.177337
 H        -0.460088         1.423855        -1.466599
