19
Iteration:  4827charge 0 multiplicity 1
 C        -2.816946        -1.397693         1.663371
 C        -1.727676        -0.487542         1.109575
 C        -2.004513         0.332308        -0.263542
 C        -1.655697        -0.847278        -1.006675
 C        -0.690894        -1.203564         0.229783
 O        -0.038048        -2.450366         0.403723
 C         0.263364         0.000562         0.158046
 O         1.422889        -0.098067         0.472553
 C        -0.727790         1.255551        -0.255171
 H        -3.471495        -1.907103         0.907870
 H        -2.367429        -2.236506         2.233915
 H        -3.592526        -0.935605         2.316641
 H        -1.474327         0.171690         1.939839
 H        -2.908238         0.907227        -0.435287
 H        -2.515409        -1.700155        -1.266576
 H        -1.222386        -0.667377        -1.979818
 H         0.855931        -2.367593         0.630024
 H        -0.810392         2.190926         0.403057
 H        -0.462485         1.601357        -1.250128
