19
Iteration:  4053charge 0 multiplicity 1
 C        -3.008358        -1.358691         1.587164
 C        -1.764595        -0.587112         1.155833
 C        -1.921263         0.331658        -0.066392
 C        -1.605805        -0.910109        -1.044211
 C        -0.642195        -1.166357         0.172971
 O        -0.085143        -2.430178         0.378120
 C         0.281942         0.053311         0.131336
 O         1.463864         0.050694         0.483198
 C        -0.701132         1.077624        -0.245990
 H        -3.501831        -1.929892         0.837388
 H        -2.752654        -2.034988         2.489805
 H        -3.573262        -0.603797         2.109063
 H        -1.426419         0.091084         1.943452
 H        -2.863903         1.007164        -0.057111
 H        -2.212045        -1.817104        -1.053411
 H        -1.197417        -0.606343        -2.122756
 H         0.798701        -2.467552         0.047165
 H        -0.514677         2.023330         0.189632
 H        -0.613144         1.239621        -1.305513
