19
Iteration:   268
 C        -3.092434        -1.484040         1.425602
 C        -1.826921        -0.568314         1.241099
 C        -1.898671         0.488068         0.027159
 C        -1.634660        -0.820969        -0.926895
 C        -0.618665        -1.225432         0.261875
 O        -0.028858        -2.432133         0.468593
 C         0.282438        -0.031238         0.131007
 O         1.488233         0.031958         0.135670
 C        -0.640051         1.147200        -0.149006
 H        -3.624138        -1.647428         0.467443
 H        -2.980615        -2.481382         1.899781
 H        -3.901040        -0.934550         2.066702
 H        -1.446543        -0.402008         2.297725
 H        -2.788321         1.148258        -0.051612
 H        -2.517349        -1.545999        -0.992185
 H        -1.111987        -0.661236        -1.986869
 H         0.874659        -2.421344         0.155514
 H        -0.354992         1.910671         0.641818
 H        -0.481582         1.491010        -1.154966
