19
Iteration:  4110
 C        -2.869514        -1.509650         1.438823
 C        -1.825035        -0.522772         1.132096
 C        -2.019677         0.366737        -0.193061
 C        -1.563676        -0.871883        -0.970368
 C        -0.700584        -1.143518         0.241090
 O        -0.197262        -2.350058         0.601475
 C         0.296425        -0.019861         0.149646
 O         1.536845        -0.046557         0.098478
 C        -0.651171         1.195469         0.030438
 H        -3.038805        -2.310931         0.583573
 H        -2.489304        -2.075968         2.299774
 H        -3.878409        -1.020656         1.440926
 H        -1.670034         0.147975         1.985775
 H        -2.999520         0.748648        -0.423024
 H        -2.315319        -1.657246        -1.072507
 H        -1.104051        -0.649435        -2.005010
 H         0.683451        -2.210127         1.035815
 H        -0.507205         1.664203         0.970922
 H        -0.251949         1.891169        -0.820964
