19
Iteration:  1234
 C        -2.817977        -1.508033         1.555554
 C        -1.796681        -0.488113         1.175425
 C        -1.973568         0.456150        -0.072212
 C        -1.735282        -0.860387        -0.972529
 C        -0.658917        -1.182942         0.162859
 O        -0.143700        -2.487124         0.305453
 C         0.297330         0.057467         0.132806
 O         1.482322        -0.031573         0.459966
 C        -0.612931         1.186633        -0.245225
 H        -3.186790        -2.255382         0.719118
 H        -2.469524        -2.225242         2.278120
 H        -3.662902        -0.992698         2.172951
 H        -1.491590        -0.110194         2.177628
 H        -2.850409         1.096896        -0.308943
 H        -2.587695        -1.585140        -0.918177
 H        -1.309312        -0.646700        -2.029103
 H         0.648396        -2.368291         0.808585
 H        -0.641538         2.071358         0.419091
 H        -0.424041         1.499798        -1.267074
