19
Iteration:   206
 C        -2.805860        -1.607008         1.654514
 C        -1.943456        -0.511880         1.114284
 C        -2.031763         0.452293        -0.181011
 C        -1.510668        -0.771878        -1.073155
 C        -0.738169        -1.149625         0.256658
 O        -0.217784        -2.423262         0.522363
 C         0.275267        -0.011393         0.203084
 O         1.462087        -0.077983         0.113392
 C        -0.567077         1.210069        -0.046497
 H        -3.390519        -2.097491         0.865298
 H        -2.136346        -2.386768         1.960825
 H        -3.407779        -1.241293         2.484974
 H        -1.452649         0.028559         1.916257
 H        -2.847985         0.994918        -0.571244
 H        -2.120836        -1.457873        -1.474008
 H        -0.951192        -0.277959        -1.817725
 H         0.688774        -2.477137         0.267833
 H        -0.509983         1.819292         0.906243
 H        -0.067322         1.901285        -0.706385
