19
Iteration:  2364charge 0 multiplicity 1
 C        -2.798227        -1.489890         1.579796
 C        -1.769168        -0.479720         1.163603
 C        -1.953371         0.423152        -0.079284
 C        -1.747374        -0.830930        -0.969125
 C        -0.669511        -1.200097         0.141428
 O        -0.190331        -2.460080         0.319456
 C         0.309783        -0.035110         0.102682
 O         1.489719        -0.011894         0.393724
 C        -0.643169         1.195169        -0.137612
 H        -3.649962        -1.748688         0.822858
 H        -2.311310        -2.429917         1.679291
 H        -3.365413        -1.355595         2.515373
 H        -1.286304        -0.053431         2.015587
 H        -2.667229         1.263531        -0.255605
 H        -2.577966        -1.571751        -0.908937
 H        -1.436364        -0.652686        -1.992222
 H         0.656167        -2.433798         0.708302
 H        -0.609213         1.979615         0.654082
 H        -0.426657         1.677292        -1.129616
