19
Iteration:  3309charge 0 multiplicity 1
 C        -2.969055        -1.647274         1.412683
 C        -1.854336        -0.534162         1.131559
 C        -1.978367         0.440177        -0.156590
 C        -1.476656        -0.811755        -0.986920
 C        -0.661572        -1.095501         0.376699
 O        -0.187247        -2.360194         0.759592
 C         0.299417        -0.008102         0.152123
 O         1.483820        -0.111278        -0.012664
 C        -0.658009         1.255029        -0.147649
 H        -3.691921        -1.757383         0.715801
 H        -2.409386        -2.619535         1.560017
 H        -3.307483        -1.498655         2.446383
 H        -1.530627         0.018888         2.105317
 H        -2.964224         0.931662        -0.451261
 H        -2.182902        -1.627878        -1.183494
 H        -1.028715        -0.566775        -2.013253
 H         0.816046        -2.203682         0.831040
 H        -0.465083         1.848451         0.754089
 H        -0.537059         1.952791        -0.957852
