19
Iteration:    69charge 0 multiplicity 1
 C        -2.809584        -1.405171         1.641362
 C        -1.740378        -0.462274         1.143331
 C        -1.972996         0.331608        -0.084759
 C        -1.690437        -0.739007        -1.064322
 C        -0.648628        -1.226702         0.023755
 O        -0.160861        -2.539593         0.377072
 C         0.286093        -0.041751         0.054128
 O         1.467740        -0.033870         0.387093
 C        -0.717890         1.195563        -0.045267
 H        -2.446261        -2.452906         1.597277
 H        -2.920660        -1.286319         2.754758
 H        -3.687632        -1.229794         1.065832
 H        -1.321616         0.068597         1.994464
 H        -2.870779         0.860841        -0.304530
 H        -2.634426        -1.319195        -1.108699
 H        -1.176149        -0.382240        -1.949851
 H         0.665426        -2.304307         0.936552
 H        -0.687650         1.718742         0.862363
 H        -0.441903         1.781717        -0.960396
