19
Iteration:    49
 C        -2.833531        -1.544429         1.527585
 C        -1.683775        -0.585124         1.152450
 C        -1.999760         0.458224        -0.037784
 C        -1.724589        -0.836450        -1.007914
 C        -0.706400        -1.115246         0.207980
 O        -0.306866        -2.484536         0.343326
 C         0.335220         0.048581         0.116274
 O         1.544534         0.022892         0.353958
 C        -0.594721         1.201208        -0.175847
 H        -2.459789        -2.590234         1.663735
 H        -3.167500        -1.401248         2.586899
 H        -3.700744        -1.568539         0.831468
 H        -1.089939        -0.277946         2.035883
 H        -2.872107         1.151303         0.007126
 H        -2.424873        -1.669886        -0.740005
 H        -1.372956        -0.712879        -2.030588
 H         0.500948        -2.378573         0.822778
 H        -0.377110         1.903402         0.637074
 H        -0.486907         1.528642        -1.229537
