19
Iteration:  2971charge 0 multiplicity 1
 C        -2.948974        -1.464805         1.539453
 C        -1.818215        -0.505845         1.106996
 C        -2.015600         0.283130        -0.158120
 C        -1.511104        -0.873684        -1.095049
 C        -0.684009        -1.176880         0.296746
 O        -0.149112        -2.430439         0.707525
 C         0.315081        -0.021421         0.124406
 O         1.540244         0.040158         0.162578
 C        -0.706635         1.195068        -0.220897
 H        -3.852448        -0.886306         1.623598
 H        -3.181707        -2.177656         0.592829
 H        -2.625907        -2.119528         2.443543
 H        -1.413326         0.150490         1.914861
 H        -2.966996         0.812424        -0.365626
 H        -2.289784        -1.586265        -1.414657
 H        -0.901200        -0.555331        -1.934856
 H         0.530514        -2.232017         1.455895
 H        -0.741293         1.743152         0.799714
 H        -0.515624         1.980667        -1.019082
