19
Iteration:  1294
 C        -2.958726        -1.325926         1.540850
 C        -1.769341        -0.507209         1.183105
 C        -2.009132         0.331706        -0.140327
 C        -1.534035        -0.900591        -1.005193
 C        -0.670460        -1.205115         0.207341
 O        -0.057561        -2.501167         0.349943
 C         0.261087         0.009170         0.181752
 O         1.494275        -0.005652         0.210182
 C        -0.701492         1.180798         0.044371
 H        -3.496663        -1.811117         0.769374
 H        -2.743536        -2.136726         2.304667
 H        -3.761337        -0.598274         1.836845
 H        -1.479761         0.183470         2.115573
 H        -2.979376         0.792773        -0.365090
 H        -2.460914        -1.509087        -1.143104
 H        -1.355919        -0.970680        -2.073267
 H         0.975436        -2.349983         0.289783
 H        -0.909985         1.704735         1.019442
 H        -0.318589         1.919515        -0.722856
