19
Iteration:  2220
 C        -3.043147        -1.521481         1.509642
 C        -1.799246        -0.626643         1.172348
 C        -1.939041         0.482406         0.065026
 C        -1.615966        -0.779329        -0.907743
 C        -0.557830        -1.179919         0.266034
 O        -0.211982        -2.507216         0.454225
 C         0.353614         0.019225         0.128624
 O         1.575154         0.022906         0.060015
 C        -0.668385         1.198458        -0.144554
 H        -3.654482        -1.829445         0.678223
 H        -2.662646        -2.446872         1.982409
 H        -3.814346        -1.157187         2.262046
 H        -1.503592        -0.113159         2.112323
 H        -2.915796         1.012440         0.062742
 H        -2.547076        -1.327006        -1.012306
 H        -1.243242        -0.616538        -1.936015
 H         0.822038        -2.529343         0.353149
 H        -0.576045         2.050234         0.517250
 H        -0.603853         1.706409        -1.183340
