19
Iteration:  1872charge 0 multiplicity 1
 C        -2.912013        -1.553741         1.372209
 C        -1.759041        -0.464304         1.248819
 C        -1.947680         0.401958        -0.051418
 C        -1.648083        -0.829085        -0.889423
 C        -0.726035        -1.136783         0.298675
 O        -0.122443        -2.363465         0.481098
 C         0.277241         0.004525         0.112075
 O         1.469396        -0.131239         0.202835
 C        -0.643246         1.208227        -0.162723
 H        -3.363675        -1.883328         0.440857
 H        -2.364542        -2.379470         1.850754
 H        -3.837287        -1.391533         2.016971
 H        -1.294229        -0.036160         2.217931
 H        -2.935179         0.932374        -0.187525
 H        -2.494584        -1.490633        -1.121958
 H        -1.162192        -0.729437        -1.915082
 H         0.832891        -2.101117         0.349889
 H        -0.367798         1.966118         0.632393
 H        -0.396160         1.573949        -1.220928
