19
Iteration:  2719
 C        -3.081002        -1.420543         1.429051
 C        -1.878957        -0.548047         1.118736
 C        -1.977986         0.306041        -0.167826
 C        -1.503138        -0.914090        -0.956437
 C        -0.612573        -1.179941         0.308763
 O        -0.122057        -2.413548         0.676075
 C         0.333531        -0.016265         0.131373
 O         1.578518         0.059629         0.048920
 C        -0.744802         1.200915        -0.065862
 H        -3.909177        -1.244272         0.766692
 H        -2.791829        -2.547379         1.397183
 H        -3.380077        -1.126200         2.478479
 H        -1.419792        -0.078304         2.079977
 H        -2.866791         0.846404        -0.373552
 H        -2.154356        -1.799210        -1.047341
 H        -0.935053        -0.803399        -1.964078
 H         0.796741        -2.200758         0.771654
 H        -0.758885         1.876019         0.848491
 H        -0.437879         1.718855        -0.991954
