19
Iteration:   628
 C        -3.025884        -1.321317         1.600111
 C        -1.764933        -0.587580         1.221360
 C        -1.974035         0.320872        -0.041780
 C        -1.727827        -0.851051        -1.035030
 C        -0.600278        -1.232844         0.145015
 O         0.014900        -2.426033         0.263138
 C         0.268210         0.022444         0.203946
 O         1.489396        -0.059226         0.383655
 C        -0.666023         1.182459        -0.200271
 H        -3.698339        -1.512923         0.765619
 H        -2.844754        -2.190567         2.232062
 H        -3.461985        -0.556449         2.297433
 H        -1.441747        -0.123312         2.145143
 H        -2.889914         0.907526        -0.089451
 H        -2.285413        -1.688044        -0.828207
 H        -1.500404        -0.742901        -2.110997
 H         0.955501        -2.152018         0.422320
 H        -0.619189         2.104460         0.475358
 H        -0.522214         1.430607        -1.241012
