19
Iteration:  4103
 C        -2.896843        -1.485848         1.421610
 C        -1.883781        -0.471437         1.099639
 C        -1.999209         0.402125        -0.130544
 C        -1.545189        -0.903022        -0.960648
 C        -0.642382        -1.171102         0.210839
 O        -0.203131        -2.378382         0.585658
 C         0.300464        -0.032869         0.121732
 O         1.520097        -0.002627         0.142712
 C        -0.665012         1.166873        -0.002130
 H        -2.869416        -2.304996         0.677865
 H        -2.545711        -1.997303         2.316278
 H        -3.905745        -1.060311         1.690160
 H        -1.386434         0.022687         1.968967
 H        -2.996814         0.785389        -0.293799
 H        -2.355311        -1.650533        -1.071919
 H        -1.040311        -0.801309        -1.858467
 H         0.779665        -2.464727         0.828293
 H        -0.476664         1.757740         0.981499
 H        -0.430656         1.871755        -0.882435
