19
Iteration:  4300
 C        -2.776950        -1.501887         1.595271
 C        -1.705950        -0.488981         1.135019
 C        -1.958083         0.398909        -0.178368
 C        -1.720822        -0.936601        -1.047082
 C        -0.686523        -1.165474         0.107172
 O        -0.175284        -2.462483         0.432681
 C         0.314251         0.078886         0.058403
 O         1.399173        -0.016826         0.628649
 C        -0.646751         1.191271        -0.303025
 H        -3.018327        -2.323560         0.918675
 H        -2.369447        -1.804969         2.622559
 H        -3.781039        -0.958609         1.804784
 H        -1.106302        -0.005163         1.932244
 H        -2.941736         0.941496        -0.212728
 H        -2.575383        -1.580191        -1.132850
 H        -1.283329        -0.838275        -2.036245
 H         0.629522        -2.171619         0.855959
 H        -0.612745         2.114669         0.332150
 H        -0.491947         1.494133        -1.328965
