19
Iteration:   375
 C        -2.724136        -1.577303         1.600443
 C        -1.790141        -0.466237         1.150895
 C        -1.989652         0.412766        -0.124202
 C        -1.590798        -0.781686        -1.029364
 C        -0.731568        -1.141544         0.238316
 O        -0.287671        -2.407339         0.368447
 C         0.330292        -0.001526         0.092410
 O         1.481049        -0.109164         0.476915
 C        -0.695732         1.172956        -0.251550
 H        -3.097326        -2.146997         0.748702
 H        -2.094743        -2.106076         2.358714
 H        -3.603990        -1.282809         2.193706
 H        -1.497501         0.104406         2.080546
 H        -2.834796         1.141138        -0.339453
 H        -2.315723        -1.611268        -1.262990
 H        -1.020258        -0.506007        -1.920342
 H         0.719474        -2.249743         0.563092
 H        -0.522609         2.047953         0.397595
 H        -0.668978         1.575514        -1.324584
