19
Iteration:  4542charge 0 multiplicity 1
 C        -2.901651        -1.320917         1.558946
 C        -1.707943        -0.521085         1.172462
 C        -2.015042         0.393810        -0.119848
 C        -1.729764        -1.011570        -0.967570
 C        -0.674284        -1.250024         0.235053
 O         0.006843        -2.410678         0.293934
 C         0.270300         0.001421         0.028455
 O         1.400579        -0.037039         0.541864
 C        -0.614702         1.191469        -0.283380
 H        -3.264303        -1.884391         0.821704
 H        -2.699996        -1.967726         2.434367
 H        -3.612839        -0.568900         1.937822
 H        -1.399328         0.054759         2.141621
 H        -2.967281         0.931734        -0.342811
 H        -2.586696        -1.792348        -0.919334
 H        -1.401860        -0.814305        -2.054940
 H         0.793662        -2.134297         0.803911
 H        -0.475113         1.912069         0.597680
 H        -0.559303         1.738269        -1.143674
