19
Iteration:  3034charge 0 multiplicity 1
 C        -3.096762        -1.477582         1.390594
 C        -1.940036        -0.545822         1.072152
 C        -1.991032         0.334527        -0.089159
 C        -1.543660        -0.909363        -0.968596
 C        -0.614868        -1.178869         0.334783
 O         0.011852        -2.300073         0.799851
 C         0.284827         0.020986         0.064982
 O         1.513153        -0.038635         0.007901
 C        -0.610377         1.171042        -0.059291
 H        -3.987404        -1.042636         0.968510
 H        -2.920071        -2.521764         1.089521
 H        -3.317911        -1.535705         2.493490
 H        -1.740489         0.059409         1.942865
 H        -2.856664         0.871721        -0.480080
 H        -2.340431        -1.706269        -1.055254
 H        -1.153423        -0.796312        -1.981168
 H         0.905796        -2.354958         0.294434
 H        -0.418677         1.751389         0.904464
 H        -0.556014         1.832127        -0.901231
