19
Iteration:  2960
 C        -2.936982        -1.421509         1.560987
 C        -1.897167        -0.537829         1.080406
 C        -1.995078         0.284043        -0.259576
 C        -1.630585        -0.912112        -1.107560
 C        -0.660040        -1.156911         0.259852
 O        -0.105401        -2.411394         0.682600
 C         0.334006         0.077700         0.017005
 O         1.545029         0.021798         0.284441
 C        -0.645032         1.131200        -0.147314
 H        -3.687398        -0.905186         2.133987
 H        -3.387914        -2.183119         0.738030
 H        -2.474632        -2.087562         2.404280
 H        -1.582442        -0.001510         2.020118
 H        -2.927739         0.863388        -0.331943
 H        -2.362671        -1.727166        -1.276267
 H        -1.110796        -0.686836        -2.030191
 H         0.630062        -2.122339         1.326989
 H        -0.697610         1.761948         0.813845
 H        -0.394509         1.861358        -0.980456
