19
Iteration:  4506charge 0 multiplicity 1
 C        -2.952427        -1.392364         1.669761
 C        -1.864692        -0.521487         1.094087
 C        -2.027667         0.357583        -0.129054
 C        -1.588875        -0.901067        -1.014399
 C        -0.672996        -1.166648         0.180662
 O        -0.055595        -2.474850         0.424658
 C         0.301928         0.015357         0.177966
 O         1.527412        -0.040901         0.353547
 C        -0.706624         1.219307        -0.184265
 H        -3.407177        -2.292771         1.022753
 H        -2.587103        -1.898739         2.547624
 H        -3.821718        -0.747186         1.929104
 H        -1.464322         0.142480         1.915716
 H        -2.947979         0.921100        -0.432647
 H        -2.247403        -1.747102        -1.177425
 H        -1.207672        -0.490002        -2.063661
 H         0.942988        -2.431686         0.281199
 H        -0.378078         2.073799         0.415982
 H        -0.429165         1.504671        -1.281464
