19
Iteration:  4384charge 0 multiplicity 1
 C        -3.040287        -1.370570         1.428299
 C        -1.816054        -0.481342         1.148187
 C        -2.007084         0.349500        -0.090994
 C        -1.528668        -0.918596        -1.028979
 C        -0.696349        -1.230176         0.264155
 O         0.035486        -2.371568         0.596107
 C         0.274178         0.002003         0.154926
 O         1.489738        -0.089897         0.111887
 C        -0.725410         1.199690        -0.037148
 H        -3.560948        -1.745008         0.512755
 H        -2.900037        -2.277936         1.916503
 H        -3.660228        -0.733974         2.008887
 H        -1.395676        -0.125828         2.105344
 H        -2.987800         0.737228        -0.227205
 H        -2.357064        -1.679151        -1.182155
 H        -0.902689        -0.762535        -1.997531
 H         0.960926        -2.233514         0.650066
 H        -0.674845         1.752311         0.866962
 H        -0.579571         1.958278        -0.902557
