19
Iteration:  1882charge 0 multiplicity 1
 C        -2.882768        -1.503093         1.418307
 C        -1.820442        -0.543094         1.218853
 C        -1.991506         0.421505         0.008729
 C        -1.638457        -0.817299        -1.043905
 C        -0.697398        -1.144269         0.255799
 O        -0.090172        -2.354568         0.531491
 C         0.274488        -0.005884         0.115531
 O         1.505248        -0.168938         0.166669
 C        -0.677168         1.201182        -0.085385
 H        -3.362010        -1.865114         0.542981
 H        -2.536630        -2.471770         1.898391
 H        -3.575797        -0.974811         2.150316
 H        -1.509191         0.001941         2.163163
 H        -2.837804         1.048278        -0.328354
 H        -2.496718        -1.495087        -1.219459
 H        -0.930070        -0.594305        -1.892391
 H         0.909556        -2.211653         0.620909
 H        -0.577113         2.110750         0.541739
 H        -0.661861         1.628884        -1.159776
