19
Iteration:   995charge 0 multiplicity 1
 C        -2.953382        -1.444112         1.497594
 C        -1.782028        -0.543974         1.226063
 C        -1.964879         0.379446        -0.009227
 C        -1.636529        -0.894169        -0.931112
 C        -0.610937        -1.162729         0.182308
 O        -0.161941        -2.440447         0.360145
 C         0.309345         0.065586         0.109790
 O         1.502308         0.015156         0.300768
 C        -0.667861         1.110577        -0.183970
 H        -3.253364        -2.144043         0.694388
 H        -2.767282        -2.138917         2.383131
 H        -3.593510        -0.597094         1.907716
 H        -1.314500        -0.119425         2.109877
 H        -2.912963         1.000820         0.001344
 H        -2.416419        -1.570565        -1.177571
 H        -1.195434        -0.672582        -1.902913
 H         0.747864        -2.634754         0.390713
 H        -0.581210         1.927550         0.594086
 H        -0.618043         1.739932        -1.133923
