19
Iteration:  2055charge 0 multiplicity 1
 C        -2.860966        -1.480661         1.807263
 C        -1.784616        -0.565058         1.038508
 C        -1.986750         0.358825        -0.142923
 C        -1.616406        -0.755481        -1.079806
 C        -0.691574        -1.210675         0.099587
 O        -0.216206        -2.574617         0.313517
 C         0.290677         0.044680         0.208321
 O         1.492612         0.031305         0.341893
 C        -0.616600         1.212723        -0.076090
 H        -3.470000        -2.039757         1.180115
 H        -2.327987        -2.122689         2.649623
 H        -3.503608        -0.799824         2.390851
 H        -1.342983         0.172185         1.881904
 H        -2.897125         0.878621        -0.383836
 H        -2.368896        -1.483850        -1.389504
 H        -0.977369        -0.492744        -1.944969
 H         0.780037        -2.505305         0.465484
 H        -0.629106         2.058872         0.550748
 H        -0.629611         1.881923        -1.010257
