19
Iteration:  1422
 C        -2.990627        -1.343791         1.771794
 C        -1.773688        -0.557310         1.136749
 C        -1.987913         0.322609        -0.227883
 C        -1.421357        -0.792636        -1.158409
 C        -0.663155        -1.201252         0.187939
 O        -0.149323        -2.470741         0.343732
 C         0.243297        -0.016226         0.294294
 O         1.464429        -0.026969         0.205181
 C        -0.742418         1.145222        -0.027603
 H        -3.482012        -1.737940         0.992333
 H        -2.656520        -2.067160         2.553864
 H        -3.456833        -0.557333         2.443700
 H        -1.349977         0.051005         1.903983
 H        -3.050944         0.556454        -0.326413
 H        -2.159976        -1.545682        -1.417478
 H        -0.758881        -0.341459        -1.891708
 H         0.859496        -2.391819         0.452330
 H        -0.726901         1.724550         0.848268
 H        -0.368717         1.701797        -0.932274
