19
Iteration:  4440
 C        -2.965261        -1.589319         1.423535
 C        -1.850568        -0.494485         1.153732
 C        -1.981849         0.354150        -0.121949
 C        -1.580768        -0.805987        -0.959818
 C        -0.610450        -1.122654         0.367454
 O        -0.168607        -2.399116         0.673402
 C         0.319370         0.029423         0.079239
 O         1.520879        -0.075556         0.032388
 C        -0.632213         1.221352        -0.075769
 H        -3.437515        -1.732496         0.437102
 H        -2.587980        -2.408661         1.946892
 H        -3.916213        -1.243128         1.792851
 H        -1.536577        -0.170110         2.177316
 H        -2.858922         0.940242        -0.427410
 H        -2.234969        -1.645866        -1.132370
 H        -1.008744        -0.535557        -1.990269
 H         0.691523        -2.340619         1.021418
 H        -0.607032         1.937374         0.721254
 H        -0.651418         1.798205        -1.094122
