19
Iteration:  1553
 C        -2.865721        -1.486108         1.664867
 C        -1.881928        -0.520372         1.100027
 C        -1.988989         0.375471        -0.279766
 C        -1.555263        -0.877404        -1.080147
 C        -0.680808        -1.164752         0.207122
 O        -0.197631        -2.472652         0.378692
 C         0.297183         0.016671         0.159094
 O         1.507627         0.000852         0.238017
 C        -0.628732         1.236002         0.047364
 H        -3.381526        -2.208789         1.047786
 H        -2.235616        -2.135063         2.502929
 H        -3.590189        -0.836262         2.382656
 H        -1.524752         0.148512         1.920469
 H        -2.895152         0.990439        -0.460665
 H        -2.465653        -1.497752        -1.278021
 H        -0.988138        -0.907497        -2.073775
 H         0.591902        -2.644404         1.025818
 H        -0.701974         1.725966         0.987284
 H        -0.255673         2.073211        -0.617468
