19
Iteration:  1672charge 0 multiplicity 1
 C        -2.902997        -1.491074         1.687633
 C        -1.900255        -0.528612         1.063071
 C        -1.970537         0.435364        -0.228996
 C        -1.382726        -0.832858        -1.019781
 C        -0.700852        -1.158923         0.333852
 O        -0.219256        -2.454932         0.397467
 C         0.206293         0.018515         0.192258
 O         1.435138        -0.066600         0.080997
 C        -0.629788         1.218556         0.046184
 H        -3.183423        -2.095924         0.876697
 H        -2.237186        -2.178227         2.295942
 H        -3.571332        -1.093868         2.384136
 H        -1.599194         0.043798         2.039402
 H        -2.939028         0.922009        -0.209779
 H        -1.991530        -1.725116        -1.268988
 H        -0.545927        -0.732198        -1.797474
 H         0.817080        -2.334094         0.447853
 H        -0.571908         1.981449         0.799939
 H        -0.409178         1.739252        -0.982770
