19
Iteration:  3109
 C        -2.957603        -1.528478         1.573012
 C        -1.832620        -0.411110         1.146172
 C        -1.944825         0.325118        -0.212891
 C        -1.634180        -0.979013        -0.930738
 C        -0.603639        -1.216518         0.169744
 O        -0.195460        -2.471300         0.429077
 C         0.298371         0.060961         0.211309
 O         1.544334         0.132962         0.380786
 C        -0.623108         1.196133        -0.215331
 H        -3.757892        -1.645853         0.810245
 H        -2.499698        -2.422304         1.827197
 H        -3.483288        -1.128467         2.447708
 H        -1.374648         0.238775         1.946424
 H        -2.898243         0.763134        -0.429825
 H        -2.615469        -1.533072        -0.761656
 H        -1.395804        -1.106834        -1.994153
 H         0.821952        -2.431079         0.434394
 H        -0.689004         2.176279         0.225213
 H        -0.251071         1.257148        -1.213610
