19
Iteration:  1577charge 0 multiplicity 1
 C        -3.042764        -1.456772         1.564798
 C        -1.794623        -0.569039         1.182804
 C        -1.997079         0.342398        -0.075399
 C        -1.474915        -0.796585        -0.978424
 C        -0.640503        -1.151958         0.227759
 O        -0.109914        -2.389976         0.414315
 C         0.260790         0.010317         0.171123
 O         1.476186        -0.102491         0.143802
 C        -0.687785         1.210343        -0.077407
 H        -3.521258        -1.865342         0.713506
 H        -2.589671        -2.379255         2.127053
 H        -3.752080        -0.920940         2.334861
 H        -1.346349        -0.078954         2.031416
 H        -2.884635         0.957394        -0.274125
 H        -2.166248        -1.565152        -1.354114
 H        -0.862526        -0.508743        -1.850004
 H         0.778342        -2.406574         0.769233
 H        -0.635351         2.062400         0.591770
 H        -0.494907         1.632028        -1.066347
