19
Iteration:  1515
 C        -2.802092        -1.523646         1.630253
 C        -1.656392        -0.512432         1.138047
 C        -1.977896         0.377815        -0.113525
 C        -1.673180        -0.849169        -1.058297
 C        -0.679942        -1.168554         0.193536
 O        -0.299866        -2.463828         0.360229
 C         0.293583         0.034499         0.113304
 O         1.452491         0.012682         0.481011
 C        -0.632047         1.220456        -0.232189
 H        -2.921968        -2.352107         0.816236
 H        -2.474895        -2.027997         2.531733
 H        -3.719914        -1.072052         1.898244
 H        -1.259017        -0.005529         2.071590
 H        -2.906717         0.925020        -0.280175
 H        -2.495065        -1.546031        -1.247518
 H        -1.027498        -0.624464        -1.889039
 H         0.704043        -2.486334         0.443393
 H        -0.515016         2.060030         0.536236
 H        -0.433413         1.516395        -1.250928
