19
Iteration:  2484charge 0 multiplicity 1
 C        -3.028336        -1.522393         1.481631
 C        -1.841302        -0.567552         1.154410
 C        -1.972073         0.353105        -0.050654
 C        -1.487796        -0.758619        -0.961871
 C        -0.651227        -1.156118         0.392543
 O        -0.143112        -2.423202         0.518490
 C         0.314754        -0.019662         0.162735
 O         1.512918        -0.058396         0.019330
 C        -0.653807         1.245984        -0.089845
 H        -3.423165        -1.293806         2.522935
 H        -3.806001        -1.365600         0.802412
 H        -2.812992        -2.589470         1.460399
 H        -1.615809         0.051203         2.055500
 H        -3.024335         0.750664        -0.194251
 H        -2.329839        -1.406260        -1.156345
 H        -0.855718        -0.443092        -1.734032
 H         0.796751        -2.470005         0.357378
 H        -0.684642         2.165886         0.529643
 H        -0.455336         1.521130        -1.176346
