19
Iteration:  4883charge 0 multiplicity 1
 C        -2.978677        -1.341279         1.598858
 C        -1.779943        -0.543327         1.097097
 C        -2.006246         0.393965        -0.101197
 C        -1.626131        -0.993254        -0.969025
 C        -0.660572        -1.240533         0.138662
 O        -0.041148        -2.477693         0.405034
 C         0.321718        -0.001872         0.195640
 O         1.523569         0.048304         0.345461
 C        -0.726847         1.220314        -0.181907
 H        -3.264505        -2.018046         0.660919
 H        -2.769030        -1.976262         2.436777
 H        -3.844325        -0.718572         1.872503
 H        -1.328409         0.129315         1.942470
 H        -2.853828         0.985698        -0.175415
 H        -2.672942        -1.682288        -1.011315
 H        -1.245508        -1.009762        -2.038106
 H         0.837023        -2.318884         0.697786
 H        -0.605100         1.974875         0.620769
 H        -0.620613         1.687835        -1.211214
