19
Iteration:  3940charge 0 multiplicity 1
 C        -2.963985        -1.518319         1.464786
 C        -1.742576        -0.449930         1.104658
 C        -1.993943         0.357046        -0.160502
 C        -1.635955        -0.912310        -1.029727
 C        -0.638439        -1.174087         0.320087
 O        -0.187205        -2.456122         0.572677
 C         0.380374         0.055554         0.067322
 O         1.575504         0.040807         0.249328
 C        -0.714697         1.161193        -0.113679
 H        -3.166509        -2.151353         0.596524
 H        -2.749991        -2.165331         2.267883
 H        -3.765090        -0.868130         1.818499
 H        -1.602411         0.082971         2.053968
 H        -2.982064         0.820155        -0.378448
 H        -2.583136        -1.565548        -0.837504
 H        -1.410517        -0.915537        -2.121530
 H         0.766324        -2.184411         0.844105
 H        -0.631537         1.754197         0.817318
 H        -0.505621         1.724025        -0.909058
