19
Iteration:    48charge 0 multiplicity 1
 C        -2.838439        -1.551350         1.523404
 C        -1.688010        -0.583638         1.161648
 C        -1.993390         0.455219        -0.033064
 C        -1.719879        -0.836781        -0.999524
 C        -0.708084        -1.108632         0.205741
 O        -0.311063        -2.482219         0.340682
 C         0.332345         0.053973         0.119082
 O         1.542218         0.023766         0.350106
 C        -0.591062         1.196176        -0.178289
 H        -2.427905        -2.584534         1.652083
 H        -3.181059        -1.390450         2.574062
 H        -3.674082        -1.571987         0.830836
 H        -1.118473        -0.296784         2.053925
 H        -2.835162         1.133602        -0.010694
 H        -2.395403        -1.640972        -0.718974
 H        -1.386057        -0.737873        -2.033668
 H         0.499118        -2.386913         0.798874
 H        -0.373602         1.913138         0.582530
 H        -0.467321         1.517592        -1.234724
