19
Iteration:   765
 C        -3.045596        -1.466066         1.425553
 C        -1.804981        -0.557404         1.253872
 C        -1.986101         0.384482         0.020974
 C        -1.560582        -0.826642        -0.889842
 C        -0.719088        -1.187146         0.273173
 O        -0.041346        -2.400592         0.414735
 C         0.314616         0.005100         0.085658
 O         1.514885        -0.042860         0.134912
 C        -0.681477         1.160213        -0.141071
 H        -3.348558        -1.987072         0.512760
 H        -3.097868        -2.281192         2.271518
 H        -3.890668        -0.831921         1.760377
 H        -1.238709        -0.081868         2.093291
 H        -2.850975         1.001195        -0.086108
 H        -2.324498        -1.578747        -0.911173
 H        -1.141288        -0.510637        -1.887340
 H         0.798356        -2.405532         0.823679
 H        -0.324415         1.994099         0.534736
 H        -0.491721         1.738108        -1.109688
