19
Iteration:  1901
 C        -3.054829        -1.456572         1.576544
 C        -1.780118        -0.622621         1.084118
 C        -2.015602         0.354646        -0.128636
 C        -1.559357        -0.687604        -1.076123
 C        -0.640327        -1.162507         0.198330
 O        -0.063401        -2.386713         0.594523
 C         0.261627        -0.015335         0.138331
 O         1.499508        -0.139254         0.099576
 C        -0.688536         1.218025        -0.010926
 H        -3.743168        -2.051017         0.962229
 H        -2.612283        -2.370360         2.186547
 H        -3.612892        -0.925826         2.357322
 H        -1.193708        -0.120441         1.797722
 H        -2.961230         0.862751        -0.208329
 H        -2.291028        -1.522896        -1.203006
 H        -1.074396        -0.359879        -2.015540
 H         0.915547        -2.072203         0.711595
 H        -0.520310         1.699582         0.898929
 H        -0.294986         1.850249        -0.838913
