19
Iteration:  3653charge 0 multiplicity 1
 C        -2.876482        -1.481255         1.530503
 C        -1.835547        -0.568877         1.119828
 C        -1.980464         0.406713        -0.183839
 C        -1.450440        -0.823464        -1.031629
 C        -0.701538        -1.157405         0.250528
 O        -0.169156        -2.434295         0.620622
 C         0.241477         0.020903         0.188990
 O         1.436927        -0.020510         0.108811
 C        -0.649693         1.170417        -0.080923
 H        -3.366895        -1.857670         0.588067
 H        -2.539143        -2.058123         2.337199
 H        -3.797360        -1.127295         1.937540
 H        -1.574907         0.025036         1.980471
 H        -2.987848         0.779481        -0.339476
 H        -2.200611        -1.611468        -1.089686
 H        -0.893545        -0.781369        -2.086243
 H         0.783610        -2.367383         0.824458
 H        -0.678508         1.878848         0.712580
 H        -0.135823         1.707204        -0.918058
