19
Iteration:  2634charge 0 multiplicity 1
 C        -2.822660        -1.391312         1.612625
 C        -1.794146        -0.498652         1.118532
 C        -1.965121         0.342492        -0.150080
 C        -1.646625        -0.877925        -0.976829
 C        -0.696908        -1.211031         0.129990
 O        -0.068100        -2.450081         0.404394
 C         0.270380         0.073186         0.095338
 O         1.411210        -0.014997         0.517095
 C        -0.673815         1.148386        -0.256768
 H        -2.869336        -2.284400         1.120331
 H        -2.865841        -1.716742         2.727908
 H        -3.865403        -1.039540         1.365743
 H        -1.318053        -0.084431         1.949817
 H        -2.916122         0.872350        -0.285294
 H        -2.558974        -1.510729        -1.031969
 H        -1.219253        -0.980943        -2.010250
 H         0.819711        -2.275488         0.576015
 H        -0.467112         1.986801         0.352163
 H        -0.418431         1.567625        -1.236911
