19
Iteration:   676
 C        -2.863686        -1.487736         1.657032
 C        -1.738641        -0.485389         1.119379
 C        -1.988545         0.389968        -0.118891
 C        -1.660566        -0.812596        -0.978119
 C        -0.643562        -1.206703         0.136573
 O        -0.178505        -2.431134         0.336438
 C         0.281770         0.049180         0.169251
 O         1.468737        -0.067889         0.398072
 C        -0.665535         1.160592        -0.192700
 H        -3.327040        -1.919513         0.740207
 H        -2.314898        -2.285764         2.223593
 H        -3.605288        -1.064561         2.350125
 H        -1.234204        -0.059866         2.030429
 H        -2.923567         0.947501        -0.301676
 H        -2.569638        -1.489480        -1.097068
 H        -1.227430        -0.567969        -1.969285
 H         0.814945        -2.251278         0.570280
 H        -0.664833         1.981139         0.565169
 H        -0.384837         1.518915        -1.234412
