19
Iteration:    28
 C        -2.849744        -1.610495         1.471055
 C        -1.825379        -0.446147         1.274627
 C        -1.934017         0.463477        -0.005767
 C        -1.690291        -0.794852        -0.823571
 C        -0.607218        -1.181168         0.242995
 O        -0.277617        -2.472981         0.276901
 C         0.313435        -0.020471         0.160134
 O         1.537491         0.014923         0.284041
 C        -0.589778         1.206656        -0.248663
 H        -2.493140        -2.615162         1.796949
 H        -3.537542        -1.581185         2.362301
 H        -3.499436        -1.824777         0.582957
 H        -1.504426         0.185499         2.126808
 H        -2.919853         0.986519        -0.196957
 H        -2.642964        -1.400864        -0.943047
 H        -1.170551        -0.441004        -1.716761
 H         0.693996        -2.569751         0.303190
 H        -0.451416         2.137101         0.352769
 H        -0.570873         1.167087        -1.351787
