19
Iteration:  3887
 C        -3.170533        -1.441623         1.473284
 C        -1.845116        -0.602046         1.158691
 C        -1.988655         0.367933        -0.135229
 C        -1.444261        -0.852996        -0.965482
 C        -0.643531        -1.200466         0.398913
 O         0.088458        -2.321578         0.581713
 C         0.261859         0.048770         0.232238
 O         1.428923        -0.209314         0.003861
 C        -0.682567         1.267862        -0.099488
 H        -3.325861        -2.140738         0.717524
 H        -3.096514        -1.836590         2.462536
 H        -3.998108        -0.739397         1.432750
 H        -1.689076        -0.177568         2.100088
 H        -2.866543         0.893035        -0.620108
 H        -2.144877        -1.691372        -1.398749
 H        -0.864595        -0.447589        -1.836971
 H         0.987768        -2.070535         0.322170
 H        -0.880472         1.956915         0.772405
 H        -0.375328         1.805733        -0.932312
