19
Iteration:   393charge 0 multiplicity 1
 C        -2.757333        -1.529286         1.513350
 C        -1.727076        -0.438789         1.151373
 C        -2.007403         0.456625        -0.102942
 C        -1.687624        -0.818326        -0.975407
 C        -0.666019        -1.215445         0.134984
 O        -0.211979        -2.492423         0.436822
 C         0.232973        -0.000571         0.211505
 O         1.416648         0.016306         0.421063
 C        -0.549459         1.204357        -0.227840
 H        -3.231142        -2.073711         0.639063
 H        -2.440482        -2.410464         2.128761
 H        -3.604607        -1.164165         2.061810
 H        -1.298007         0.034607         2.029871
 H        -3.021066         0.899506        -0.270186
 H        -2.564147        -1.517431        -0.942537
 H        -1.319366        -0.762968        -1.970117
 H         0.744841        -2.717482         0.146126
 H        -0.461473         2.055478         0.414744
 H        -0.275286         1.491458        -1.275870
