19
Iteration:  1774
 C        -2.962085        -1.361925         1.740023
 C        -1.796503        -0.509184         1.159935
 C        -2.051907         0.366502        -0.183948
 C        -1.670217        -0.872789        -1.035513
 C        -0.653028        -1.157975         0.144772
 O        -0.023170        -2.401834         0.152371
 C         0.306923         0.009515         0.215616
 O         1.486704        -0.069089         0.466178
 C        -0.625707         1.078500        -0.114140
 H        -3.376793        -2.072111         1.068591
 H        -2.637352        -1.818176         2.648911
 H        -3.854592        -0.778260         2.119838
 H        -1.346058         0.119874         2.016689
 H        -3.005569         0.884563        -0.402133
 H        -2.525005        -1.579124        -0.967690
 H        -1.449281        -0.753563        -2.114561
 H         0.984311        -2.262940         0.372560
 H        -0.680655         1.991336         0.526225
 H        -0.226162         1.282951        -1.149744
