19
Iteration:  1857charge 0 multiplicity 1
 C        -2.886376        -1.602835         1.461394
 C        -1.832968        -0.520412         1.197454
 C        -1.977381         0.530657        -0.068866
 C        -1.692673        -0.842376        -0.848800
 C        -0.630903        -1.125827         0.309391
 O        -0.145810        -2.425109         0.408921
 C         0.263251        -0.024776         0.132626
 O         1.454703        -0.041749         0.267103
 C        -0.525822         1.199811        -0.259130
 H        -3.407618        -2.017485         0.531816
 H        -2.564438        -2.683047         1.834225
 H        -3.682039        -1.138641         2.044916
 H        -1.608530         0.030413         2.083680
 H        -2.837517         1.170364        -0.232146
 H        -2.399791        -1.670354        -0.714965
 H        -1.274575        -0.737777        -1.866592
 H         0.870679        -2.466834         0.271328
 H        -0.527397         1.952499         0.466474
 H        -0.252860         1.776885        -1.180475
