19
Iteration:  2917
 C        -2.947302        -1.363533         1.593190
 C        -1.696267        -0.424121         1.149177
 C        -2.023983         0.272360        -0.225463
 C        -1.605868        -0.995843        -0.990287
 C        -0.647357        -1.120636         0.297877
 O        -0.008057        -2.425813         0.415344
 C         0.228457        -0.002414         0.153095
 O         1.384144        -0.035613         0.571621
 C        -0.729317         1.148341        -0.359836
 H        -3.273114        -1.013065         2.504713
 H        -3.673584        -1.473050         0.651628
 H        -2.492187        -2.411198         1.715544
 H        -1.264708         0.352813         1.861039
 H        -2.867996         0.892914        -0.567297
 H        -2.336384        -1.767059        -1.288537
 H        -1.054708        -0.690167        -1.870265
 H         0.954188        -2.078285         0.328427
 H        -0.555843         2.168148         0.069471
 H        -0.532798         1.341394        -1.452068
