19
Iteration:  4251charge 0 multiplicity 1
 C        -2.827437        -1.434474         1.680766
 C        -1.830669        -0.516730         1.134855
 C        -1.941152         0.318275        -0.242786
 C        -1.609953        -0.929326        -1.006166
 C        -0.685695        -1.192767         0.185950
 O        -0.136742        -2.375050         0.364179
 C         0.273389         0.026551         0.158076
 O         1.425694        -0.058958         0.553100
 C        -0.662167         1.241530        -0.273440
 H        -3.363557        -1.965529         0.820478
 H        -2.345067        -2.171837         2.308830
 H        -3.601215        -0.871911         2.155880
 H        -1.350420         0.243907         1.822581
 H        -2.946815         0.684129        -0.436960
 H        -2.459953        -1.713486        -1.165206
 H        -1.120354        -0.823009        -2.078979
 H         0.880783        -2.179608         0.273665
 H        -0.535544         2.072548         0.439484
 H        -0.515745         1.625086        -1.313341
