19
Iteration:  2362
 C        -2.819361        -1.486211         1.569127
 C        -1.750746        -0.489963         1.159276
 C        -1.937933         0.420859        -0.081592
 C        -1.757921        -0.820355        -0.953938
 C        -0.671312        -1.194984         0.125671
 O        -0.204180        -2.457155         0.322074
 C         0.308762        -0.053495         0.092663
 O         1.493796         0.002496         0.402554
 C        -0.648947         1.193355        -0.137478
 H        -3.597214        -1.742009         0.819042
 H        -2.186093        -2.439705         1.729239
 H        -3.362070        -1.316241         2.543006
 H        -1.309229        -0.049789         2.015040
 H        -2.691307         1.215786        -0.179641
 H        -2.514412        -1.608167        -0.936715
 H        -1.480861        -0.705479        -2.005997
 H         0.710001        -2.428016         0.749001
 H        -0.607872         1.927346         0.674444
 H        -0.403573         1.705295        -1.149218
