19
Iteration:  4785
 C        -2.818483        -1.524232         1.561651
 C        -1.775610        -0.506873         1.109135
 C        -1.941535         0.377911        -0.196984
 C        -1.735038        -0.877994        -1.001010
 C        -0.710101        -1.132316         0.232406
 O        -0.135488        -2.447398         0.533060
 C         0.281822         0.023854         0.158120
 O         1.472022         0.016173         0.367410
 C        -0.624059         1.154848        -0.246516
 H        -3.444748        -1.860610         0.674070
 H        -2.409827        -2.320207         2.162550
 H        -3.599860        -0.984536         2.109875
 H        -1.374234         0.043358         1.923080
 H        -2.858379         0.894073        -0.290070
 H        -2.611186        -1.470264        -1.246105
 H        -1.338109        -0.821859        -2.020104
 H         0.877083        -2.264977         0.651187
 H        -0.553228         1.932526         0.574425
 H        -0.332127         1.683113        -1.201953
