19
Iteration:  1011
 C        -2.939294        -1.498443         1.526551
 C        -1.719870        -0.568001         1.219891
 C        -1.998550         0.355474        -0.011477
 C        -1.636647        -0.726103        -0.974344
 C        -0.663802        -1.185896         0.222049
 O        -0.214418        -2.506683         0.454405
 C         0.343583        -0.021642         0.060583
 O         1.554977         0.047748         0.249902
 C        -0.659417         1.246808        -0.172975
 H        -3.258717        -2.079248         0.618484
 H        -2.764359        -2.285285         2.194021
 H        -3.929303        -1.217254         1.619598
 H        -1.365083        -0.005977         2.116365
 H        -2.962190         0.797194        -0.165138
 H        -2.358585        -1.609357        -1.031550
 H        -1.321415        -0.462244        -2.017277
 H         0.718223        -2.364110         0.786749
 H        -0.497570         2.065094         0.518334
 H        -0.553471         1.394970        -1.209315
