19
Iteration:  1243charge 0 multiplicity 1
 C        -2.925395        -1.522266         1.603735
 C        -1.744112        -0.536291         1.193809
 C        -2.000776         0.427912        -0.065183
 C        -1.704976        -0.845881        -0.955809
 C        -0.674237        -1.185083         0.139402
 O        -0.149976        -2.456589         0.303217
 C         0.350983        -0.007283         0.155020
 O         1.535033         0.031606         0.441763
 C        -0.631219         1.183878        -0.251771
 H        -3.334117        -1.999194         0.597760
 H        -2.499393        -2.261092         2.293620
 H        -3.905817        -1.135615         1.897315
 H        -1.302338        -0.007954         2.022760
 H        -2.921487         1.053772        -0.161946
 H        -2.580786        -1.526508        -0.990224
 H        -1.433261        -0.518900        -2.043530
 H         0.577677        -2.440403         0.893110
 H        -0.411619         2.186477         0.200494
 H        -0.523546         1.383493        -1.316086
