19
Iteration:  2252
 C        -2.962187        -1.402979         1.514721
 C        -1.672663        -0.545505         1.187084
 C        -1.961844         0.392316         0.025409
 C        -1.680415        -0.800746        -0.987191
 C        -0.656863        -1.204362         0.183694
 O        -0.040876        -2.386585         0.404591
 C         0.238182        -0.040287         0.082284
 O         1.429605        -0.107749         0.196525
 C        -0.693653         1.132103        -0.050923
 H        -3.280431        -2.121245         0.806570
 H        -2.592909        -2.083358         2.416199
 H        -3.770769        -0.600303         1.638778
 H        -1.179846        -0.085572         2.033189
 H        -2.894703         0.990314         0.100264
 H        -2.621701        -1.350415        -1.016698
 H        -1.229365        -0.583592        -1.975206
 H         0.866346        -2.160082         0.185261
 H        -0.555561         1.779089         0.825600
 H        -0.422481         1.864718        -0.956183
