19
Iteration:  2162charge 0 multiplicity 1
 C        -2.919336        -1.525589         1.596529
 C        -1.735915        -0.592562         1.061937
 C        -2.058804         0.452766        -0.093323
 C        -1.612554        -0.766616        -1.009331
 C        -0.671537        -1.144718         0.167900
 O        -0.097339        -2.406315         0.554307
 C         0.275656         0.035518         0.058314
 O         1.485429        -0.183471         0.130433
 C        -0.646161         1.248079         0.032182
 H        -3.810070        -1.489537         1.067622
 H        -2.636167        -2.679975         1.469103
 H        -3.010667        -1.271652         2.637801
 H        -1.557661        -0.045779         1.939528
 H        -3.010853         0.939227        -0.195363
 H        -2.529917        -1.331292        -1.202034
 H        -1.197664        -0.412880        -1.971886
 H         0.819861        -2.244749         0.613983
 H        -0.728220         1.856430         0.979818
 H        -0.257690         1.743666        -0.929591
