19
Iteration:  4974
 C        -2.892498        -1.470627         1.468445
 C        -1.867816        -0.463717         1.128956
 C        -1.998954         0.347587        -0.109162
 C        -1.569862        -0.905331        -0.982893
 C        -0.670728        -1.183553         0.274230
 O        -0.088456        -2.358567         0.663222
 C         0.281163         0.066433         0.074155
 O         1.477295        -0.117225         0.092513
 C        -0.657390         1.201846        -0.049018
 H        -3.366044        -1.844105         0.495465
 H        -2.527699        -2.371079         2.035551
 H        -3.795400        -1.202353         2.031018
 H        -1.663059         0.041057         2.047464
 H        -2.960097         0.731718        -0.545081
 H        -2.303007        -1.532883        -1.280474
 H        -0.935710        -0.643443        -1.967797
 H         0.844215        -2.328370         0.618994
 H        -0.541478         1.761674         0.890022
 H        -0.594074         2.003045        -0.929953
