19
Iteration:   527
 C        -2.864085        -1.558185         1.404773
 C        -1.762893        -0.565063         1.159391
 C        -1.864553         0.450483         0.029454
 C        -1.630591        -0.717635        -0.987258
 C        -0.693967        -1.236176         0.248140
 O        -0.238484        -2.424253         0.655461
 C         0.280977        -0.010428         0.144312
 O         1.492730        -0.022143         0.106846
 C        -0.676807         1.219540        -0.168072
 H        -2.794933        -2.220542         0.586065
 H        -2.612178        -2.234989         2.237346
 H        -3.797078        -1.028344         1.380970
 H        -1.394438        -0.278590         2.123485
 H        -2.910579         0.736397        -0.106219
 H        -2.509985        -1.315641        -1.038544
 H        -1.272347        -0.496623        -1.953197
 H         0.720574        -2.586733         0.423328
 H        -0.432462         2.025630         0.508442
 H        -0.658709         1.668494        -1.180928
