19
Iteration:   286charge 0 multiplicity 1
 C        -3.136084        -1.391227         1.438130
 C        -1.733831        -0.750248         1.255350
 C        -1.985391         0.350460        -0.002142
 C        -1.619127        -0.792501        -0.892908
 C        -0.700441        -1.209642         0.301817
 O        -0.026510        -2.492025         0.400136
 C         0.325613         0.104558         0.186346
 O         1.527073         0.017893         0.205292
 C        -0.598431         1.248216        -0.205263
 H        -3.640172        -1.670117         0.512584
 H        -2.990782        -2.215542         2.166019
 H        -3.736461        -0.679361         1.951344
 H        -1.399974        -0.114885         2.087442
 H        -3.047580         0.757578        -0.134526
 H        -2.492343        -1.560405        -1.014536
 H        -1.293844        -0.501129        -1.853154
 H         0.678899        -2.557534        -0.230246
 H        -0.519958         2.161688         0.308052
 H        -0.320308         1.362115        -1.308090
