19
Iteration:  1758charge 0 multiplicity 1
 C        -2.938655        -1.418295         1.626874
 C        -1.850246        -0.541011         1.167011
 C        -1.951982         0.413014        -0.017659
 C        -1.710193        -0.857270        -0.897719
 C        -0.687623        -1.180078         0.156946
 O        -0.005281        -2.356625         0.175835
 C         0.305611        -0.034024         0.175990
 O         1.473268        -0.102758         0.495596
 C        -0.635960         1.152278        -0.320870
 H        -3.415932        -2.280851         1.006735
 H        -2.655825        -1.900808         2.636406
 H        -3.812467        -0.800957         1.738620
 H        -1.394722         0.000753         2.011663
 H        -2.855721         1.028223        -0.090957
 H        -2.438164        -1.681007        -0.972924
 H        -1.235364        -0.637546        -1.883092
 H         0.867823        -2.172205         0.508866
 H        -0.339298         2.049507         0.205370
 H        -0.711284         1.441112        -1.450388
