19
Iteration:  2545charge 0 multiplicity 1
 C        -2.895944        -1.541456         1.550383
 C        -1.800607        -0.477163         1.101247
 C        -1.969377         0.411766        -0.119880
 C        -1.651294        -0.831632        -0.991197
 C        -0.640156        -1.129332         0.209420
 O        -0.081209        -2.370557         0.521401
 C         0.254495        -0.009316         0.141438
 O         1.455866        -0.137754         0.278435
 C        -0.662332         1.183169        -0.148352
 H        -2.562489        -2.235660         2.269148
 H        -3.753847        -0.832936         1.978192
 H        -3.323031        -2.055342         0.622878
 H        -1.467186         0.080860         1.978648
 H        -2.903769         0.928646        -0.141732
 H        -2.497485        -1.463212        -1.258539
 H        -1.129265        -0.798443        -2.039253
 H         0.928582        -2.210978         0.462670
 H        -0.705835         1.918454         0.661520
 H        -0.332447         1.640415        -1.103660
