19
Iteration:   820charge 0 multiplicity 1
 C        -3.009772        -1.465876         1.545922
 C        -1.838882        -0.532497         1.148851
 C        -1.962949         0.348055        -0.140168
 C        -1.562206        -0.918992        -1.052123
 C        -0.658731        -1.143457         0.267798
 O        -0.079507        -2.369223         0.454817
 C         0.272443         0.028770         0.119300
 O         1.487051        -0.101164         0.120235
 C        -0.674788         1.223556         0.066957
 H        -3.609229        -1.953269         0.827775
 H        -2.466255        -2.018948         2.384180
 H        -3.620578        -0.774203         2.174689
 H        -1.471844         0.005627         2.061945
 H        -2.828372         0.942025        -0.309558
 H        -2.327817        -1.623672        -1.235406
 H        -0.909851        -0.641438        -1.915745
 H         0.863839        -2.306244         0.310308
 H        -0.700645         1.740833         1.037424
 H        -0.367841         1.791265        -0.881502
