19
Iteration:  2574
 C        -3.032976        -1.448681         1.691302
 C        -1.812868        -0.558337         1.154751
 C        -1.999063         0.417897        -0.121302
 C        -1.540602        -0.837249        -1.002830
 C        -0.614951        -1.195616         0.198130
 O        -0.104664        -2.482204         0.351263
 C         0.269057         0.022273         0.165213
 O         1.468667         0.043360         0.369733
 C        -0.643110         1.133537        -0.284189
 H        -2.729780        -2.531086         1.934406
 H        -3.406182        -0.906702         2.469690
 H        -3.780075        -1.382686         0.935200
 H        -1.315244        -0.107437         2.024503
 H        -2.982906         0.916446        -0.201930
 H        -2.331781        -1.581097        -1.177998
 H        -0.855547        -0.710236        -1.823802
 H         0.892947        -2.319031         0.621814
 H        -0.596152         1.943461         0.503655
 H        -0.362142         1.407974        -1.295558
