19
Iteration:  4418charge 0 multiplicity 1
 C        -3.057593        -1.593488         1.363941
 C        -1.900373        -0.561910         1.160190
 C        -1.942287         0.423394        -0.045680
 C        -1.512234        -0.867262        -0.943099
 C        -0.701248        -1.123757         0.370485
 O        -0.075999        -2.305097         0.652453
 C         0.316939        -0.001456         0.179083
 O         1.526216        -0.084784         0.000623
 C        -0.646426         1.185399        -0.143185
 H        -3.788733        -1.771447         0.587671
 H        -2.657743        -2.323275         1.977397
 H        -3.782652        -1.082978         1.986104
 H        -1.763914        -0.218851         2.231647
 H        -2.871240         0.979272        -0.159458
 H        -2.359596        -1.544102        -1.099603
 H        -0.821849        -0.785134        -1.928711
 H         0.833779        -1.950080         0.350663
 H        -0.369657         1.851870         0.635276
 H        -0.435019         1.665863        -1.188981
