19
Iteration:  1220
 C        -2.708114        -1.515021         1.586510
 C        -1.754790        -0.428729         1.091067
 C        -1.964339         0.407900        -0.184140
 C        -1.672507        -0.850291        -0.951497
 C        -0.710527        -1.143993         0.176226
 O        -0.154069        -2.424629         0.328571
 C         0.215232        -0.034171         0.123363
 O         1.375106        -0.111252         0.478668
 C        -0.640276         1.213505        -0.153720
 H        -3.296277        -2.130907         0.790536
 H        -1.971465        -2.062241         2.225978
 H        -3.587422        -1.121358         2.130998
 H        -1.378942         0.192231         1.873443
 H        -2.905987         0.967454        -0.256820
 H        -2.553749        -1.493201        -0.908403
 H        -1.192391        -0.868165        -2.014059
 H         0.855503        -2.305339         0.459484
 H        -0.432888         1.910766         0.706595
 H        -0.392503         1.805840        -1.037023
