19
Iteration:   629
 C        -3.030221        -1.328247         1.594896
 C        -1.765719        -0.579767         1.230138
 C        -1.961746         0.319618        -0.043910
 C        -1.725927        -0.845315        -1.022899
 C        -0.603267        -1.228868         0.137153
 O         0.014203        -2.431301         0.258731
 C         0.267842         0.022446         0.208493
 O         1.485810        -0.058294         0.383552
 C        -0.664920         1.182270        -0.208127
 H        -3.719506        -1.511523         0.736792
 H        -2.809008        -2.177139         2.237374
 H        -3.473579        -0.572942         2.305793
 H        -1.434430        -0.104583         2.166435
 H        -2.892482         0.904097        -0.114553
 H        -2.288186        -1.713752        -0.801973
 H        -1.531920        -0.756653        -2.099851
 H         0.983245        -2.144540         0.437387
 H        -0.634365         2.102215         0.500389
 H        -0.521406         1.410980        -1.256442
