19
Iteration:  3926
 C        -2.989256        -1.408394         1.443692
 C        -1.920443        -0.542593         1.153309
 C        -2.025219         0.341297        -0.140453
 C        -1.628854        -0.904371        -0.954588
 C        -0.614008        -1.168619         0.230454
 O        -0.078094        -2.434418         0.607716
 C         0.350131         0.001720         0.113848
 O         1.577568         0.012903         0.155389
 C        -0.666157         1.187949        -0.081546
 H        -3.281402        -2.244515         0.668052
 H        -2.714580        -2.051308         2.293618
 H        -4.003897        -0.945172         1.506826
 H        -1.484841         0.112264         1.955689
 H        -2.899635         0.910655        -0.350799
 H        -2.318131        -1.695391        -1.111641
 H        -1.109090        -0.641204        -1.859319
 H         0.843102        -2.402735         0.814236
 H        -0.724012         1.816077         0.809144
 H        -0.503273         1.915635        -0.970964
