19
Iteration:   927charge 0 multiplicity 1
 C        -2.916208        -1.397249         1.769721
 C        -1.751593        -0.577186         1.111576
 C        -1.971662         0.318693        -0.143096
 C        -1.657721        -0.852185        -1.074436
 C        -0.650225        -1.168274         0.176434
 O        -0.049019        -2.397852         0.268982
 C         0.226144         0.024660         0.180510
 O         1.415806        -0.113032         0.421585
 C        -0.666117         1.186237        -0.186207
 H        -3.445467        -1.872478         0.977656
 H        -2.720658        -2.176213         2.477750
 H        -3.413607        -0.548771         2.262835
 H        -1.324136         0.012752         1.931027
 H        -2.798151         0.967208        -0.272138
 H        -2.397298        -1.608734        -1.255696
 H        -1.080349        -0.639287        -1.983449
 H         0.901601        -2.031377         0.413287
 H        -0.743368         2.014893         0.550719
 H        -0.336272         1.744760        -1.027306
