19
Iteration:  4335charge 0 multiplicity 1
 C        -2.921134        -1.382080         1.577324
 C        -1.860619        -0.461559         1.121784
 C        -1.968719         0.341686        -0.203070
 C        -1.598593        -0.880582        -0.980922
 C        -0.711584        -1.252803         0.237309
 O        -0.090585        -2.522903         0.379901
 C         0.308706         0.062242         0.169248
 O         1.540658         0.044206         0.405406
 C        -0.735264         1.155264        -0.191835
 H        -3.157966        -2.194330         0.942513
 H        -2.527309        -1.988879         2.542302
 H        -3.825324        -0.820235         2.017581
 H        -1.559595         0.109890         1.980957
 H        -2.922131         0.964879        -0.360437
 H        -2.316113        -1.602151        -1.120402
 H        -1.066619        -0.690690        -1.825177
 H         0.902078        -2.501659         0.411146
 H        -0.606535         2.160399         0.400495
 H        -0.410695         1.348908        -1.170941
