19
Iteration:  1060
 C        -2.839840        -1.541802         1.516653
 C        -1.832782        -0.499540         1.115757
 C        -2.027741         0.441312        -0.166720
 C        -1.571470        -0.846991        -0.987509
 C        -0.715937        -1.116159         0.282292
 O        -0.155944        -2.387400         0.494273
 C         0.341203         0.006441         0.172142
 O         1.559863        -0.171646         0.105221
 C        -0.760577         1.251055         0.016398
 H        -3.415323        -2.165109         0.772960
 H        -2.332927        -2.341362         2.189409
 H        -3.731845        -1.061466         2.120723
 H        -1.557649        -0.028661         2.091649
 H        -2.923008         1.060794        -0.465739
 H        -2.389335        -1.456586        -1.311343
 H        -0.884482        -0.751864        -1.832008
 H         0.760492        -2.203471         0.305013
 H        -0.785762         1.665575         1.050393
 H        -0.451776         2.007363        -0.765256
