19
Iteration:   809charge 0 multiplicity 1
 C        -3.042437        -1.373264         1.551081
 C        -1.812652        -0.614862         1.087538
 C        -1.971994         0.390321        -0.090698
 C        -1.588071        -0.852880        -1.002912
 C        -0.656342        -1.193764         0.203086
 O         0.002352        -2.373672         0.511644
 C         0.282686         0.022300         0.196200
 O         1.475984        -0.106664         0.101484
 C        -0.679034         1.220257        -0.010672
 H        -3.493846        -2.070913         0.881300
 H        -2.767997        -2.268587         2.259770
 H        -3.883754        -0.781198         1.996511
 H        -1.413762        -0.201236         2.048137
 H        -2.925817         0.813063        -0.253649
 H        -2.321587        -1.614632        -1.023714
 H        -1.158443        -0.758203        -2.066767
 H         0.878257        -2.444105         0.079469
 H        -0.735398         1.866498         0.887685
 H        -0.347217         2.081539        -0.685976
