19
Iteration:  1142charge 0 multiplicity 1
 C        -2.947702        -1.337827         1.508807
 C        -1.787322        -0.537609         1.202774
 C        -1.973827         0.308867        -0.055938
 C        -1.656953        -0.914750        -0.915303
 C        -0.663072        -1.170766         0.262394
 O        -0.114583        -2.459729         0.256793
 C         0.297866         0.018665         0.169451
 O         1.534249         0.027858         0.296117
 C        -0.683729         1.154412        -0.124311
 H        -3.389509        -1.725701         0.472374
 H        -2.643257        -2.247675         2.190344
 H        -3.766704        -0.832997         2.051391
 H        -1.326364        -0.111254         2.096816
 H        -2.894784         0.848575        -0.248351
 H        -2.386173        -1.693120        -0.730914
 H        -1.253870        -0.708549        -1.945664
 H         0.811037        -2.394024         0.279515
 H        -0.652658         1.972417         0.622468
 H        -0.368799         1.664154        -1.070777
