19
Iteration:  4822charge 0 multiplicity 1
 C        -2.822174        -1.428817         1.660211
 C        -1.777698        -0.470383         1.091689
 C        -1.969973         0.352067        -0.239838
 C        -1.694325        -0.882233        -1.017374
 C        -0.625306        -1.227225         0.218833
 O        -0.072319        -2.428953         0.409807
 C         0.261458         0.030838         0.158186
 O         1.425813        -0.105465         0.471042
 C        -0.716138         1.235855        -0.274401
 H        -3.343623        -1.922556         0.851261
 H        -2.382838        -2.295562         2.186576
 H        -3.504207        -0.891898         2.325630
 H        -1.464446         0.263201         1.938044
 H        -2.955449         0.896872        -0.329994
 H        -2.465134        -1.562958        -1.051997
 H        -1.155261        -0.565826        -1.957313
 H         0.917042        -2.296883         0.741106
 H        -0.785393         2.004551         0.452874
 H        -0.522478         1.708835        -1.275473
