19
Iteration:  1103charge 0 multiplicity 1
 C        -3.046395        -1.410588         1.519587
 C        -1.813210        -0.707038         1.249051
 C        -1.944384         0.378608        -0.060453
 C        -1.613680        -0.798708        -1.012551
 C        -0.742245        -1.237534         0.230011
 O        -0.014704        -2.417994         0.429316
 C         0.272768         0.040751         0.131790
 O         1.502079        -0.007928         0.149712
 C        -0.595901         1.164317        -0.075855
 H        -3.614422        -1.597723         0.612746
 H        -2.576243        -2.104878         2.208147
 H        -3.891547        -0.812559         1.935464
 H        -1.347167        -0.270428         2.197103
 H        -2.895353         0.978888        -0.210950
 H        -2.400217        -1.519879        -1.174717
 H        -1.076465        -0.513824        -1.977357
 H         0.830031        -2.008877         0.747302
 H        -0.468599         1.880870         0.763555
 H        -0.691912         1.732382        -1.008708
