19
Iteration:   313charge 0 multiplicity 1
 C        -3.024309        -1.313343         1.578349
 C        -1.723037        -0.568729         1.192152
 C        -2.028466         0.347773        -0.096368
 C        -1.589688        -0.867725        -0.993431
 C        -0.640694        -1.188569         0.161295
 O        -0.102635        -2.482156         0.349322
 C         0.285846        -0.026121         0.120658
 O         1.502446         0.035132         0.329086
 C        -0.669089         1.154762        -0.079204
 H        -3.313144        -1.963485         0.721470
 H        -2.738097        -2.059003         2.334988
 H        -3.918149        -0.705813         1.978005
 H        -1.214079         0.033070         1.956071
 H        -2.932882         0.877427        -0.237929
 H        -2.130846        -1.774906        -1.011683
 H        -1.219066        -0.571537        -2.089931
 H         0.796391        -2.552817         0.057556
 H        -0.707022         1.745435         0.903556
 H        -0.480510         1.780763        -0.927699
