19
Iteration:  1301
 C        -2.974081        -1.339960         1.551395
 C        -1.830239        -0.520802         1.161927
 C        -1.981130         0.330833        -0.186444
 C        -1.579864        -0.914387        -1.017470
 C        -0.645790        -1.187879         0.207954
 O        -0.051690        -2.415717         0.371764
 C         0.273365        -0.010343         0.197153
 O         1.482914        -0.040028         0.186243
 C        -0.710257         1.151017         0.085027
 H        -3.355899        -1.906907         0.696921
 H        -2.704350        -2.041792         2.345358
 H        -3.622415        -0.574486         2.085467
 H        -1.369002         0.056614         1.964754
 H        -2.851724         0.965157        -0.370717
 H        -2.399220        -1.696411        -1.079843
 H        -1.162344        -0.720147        -2.072953
 H         0.938164        -2.269553         0.266834
 H        -0.737743         1.617603         1.058249
 H        -0.393714         1.869822        -0.681807
