19
Iteration:  2299
 C        -2.889526        -1.438475         1.778868
 C        -1.847880        -0.551664         1.200438
 C        -1.992719         0.446639        -0.148074
 C        -1.653528        -0.823616        -0.995796
 C        -0.682602        -1.150805         0.186678
 O        -0.113791        -2.407421         0.160305
 C         0.258746        -0.037931         0.147364
 O         1.476271        -0.101841         0.332650
 C        -0.597520         1.154420        -0.068312
 H        -3.005409        -2.432093         1.140215
 H        -2.578597        -1.779831         2.663660
 H        -3.870749        -0.926927         1.796167
 H        -1.430892         0.069456         2.039341
 H        -2.872368         1.086874        -0.393597
 H        -2.143327        -1.797445        -1.103736
 H        -1.067626        -0.528453        -1.846019
 H         0.851657        -2.177253         0.262470
 H        -0.503020         2.040058         0.563021
 H        -0.458734         1.521505        -1.087662
