19
Iteration:   797
 C        -3.074060        -1.419816         1.502405
 C        -1.781718        -0.643735         1.143835
 C        -1.983191         0.372233        -0.096281
 C        -1.624578        -0.798115        -0.991035
 C        -0.655161        -1.221466         0.215904
 O         0.044079        -2.418795         0.542640
 C         0.255985         0.000320         0.160241
 O         1.499645        -0.071379         0.101034
 C        -0.678558         1.228483         0.002842
 H        -3.405542        -1.702273         0.535236
 H        -2.967432        -2.075925         2.486005
 H        -3.802244        -0.599910         1.747455
 H        -1.299747        -0.082241         1.966127
 H        -2.876106         0.942925        -0.181186
 H        -2.493077        -1.407104        -0.862852
 H        -1.300703        -0.596068        -2.049209
 H         0.952680        -2.211123         0.056018
 H        -0.602166         1.842083         0.947860
 H        -0.538069         1.623731        -1.058639
