19
Iteration:  3733
 C        -2.926050        -1.333721         1.631753
 C        -1.700226        -0.520246         1.154486
 C        -1.981380         0.395037        -0.165707
 C        -1.653884        -0.932768        -0.969529
 C        -0.649838        -1.192251         0.201536
 O         0.000113        -2.407347         0.304626
 C         0.238696         0.001934         0.162458
 O         1.377131        -0.059311         0.585384
 C        -0.683735         1.147977        -0.416294
 H        -3.252977        -2.116561         0.982509
 H        -2.692266        -1.942440         2.461735
 H        -3.713020        -0.631457         1.868519
 H        -1.306596        -0.135062         2.079703
 H        -2.931127         0.918732        -0.089620
 H        -2.435791        -1.725973        -0.968153
 H        -1.379079        -0.598698        -1.947588
 H         0.939907        -2.436354         0.382254
 H        -0.571027         1.965520         0.360370
 H        -0.550712         1.490446        -1.411084
