19
Iteration:  4326
 C        -2.859959        -1.443515         1.579827
 C        -1.799003        -0.453573         1.155376
 C        -2.003230         0.318214        -0.187757
 C        -1.584703        -0.883830        -0.964551
 C        -0.649322        -1.165224         0.249115
 O        -0.169290        -2.470830         0.350285
 C         0.279707         0.033777         0.169825
 O         1.445164         0.039235         0.459736
 C        -0.636034         1.109057        -0.241180
 H        -3.201562        -2.187380         0.874410
 H        -2.506266        -1.768151         2.542197
 H        -3.720499        -0.857539         1.855578
 H        -1.370550         0.122066         1.921678
 H        -2.989710         0.687504        -0.503530
 H        -2.438067        -1.530795        -1.131898
 H        -1.121463        -0.738977        -1.900855
 H         0.805659        -2.307438         0.313622
 H        -0.576246         2.050688         0.378536
 H        -0.402648         1.369986        -1.291213
