19
Iteration:  3108
 C        -2.959424        -1.531570         1.576012
 C        -1.837319        -0.417277         1.149574
 C        -1.944081         0.321396        -0.224195
 C        -1.633188        -0.977682        -0.923650
 C        -0.612429        -1.208814         0.174267
 O        -0.190303        -2.464131         0.429021
 C         0.299784         0.061579         0.216771
 O         1.550410         0.129167         0.374339
 C        -0.622823         1.194376        -0.213580
 H        -3.797730        -1.611412         0.789766
 H        -2.521751        -2.419481         1.836013
 H        -3.493221        -1.169438         2.442302
 H        -1.381738         0.249754         1.951184
 H        -2.887088         0.757213        -0.455967
 H        -2.620225        -1.532985        -0.776283
 H        -1.413121        -1.103717        -1.984619
 H         0.845911        -2.422190         0.414625
 H        -0.649883         2.160224         0.251819
 H        -0.261123         1.266804        -1.239584
