19
Iteration:  4713
 C        -3.025504        -1.387217         1.447255
 C        -1.902152        -0.568959         1.163204
 C        -1.984585         0.344993        -0.137968
 C        -1.573992        -0.922915        -0.945665
 C        -0.685366        -1.200053         0.291524
 O         0.048647        -2.438585         0.556041
 C         0.275929         0.017360         0.111171
 O         1.492867        -0.041530         0.096736
 C        -0.644668         1.204551        -0.028513
 H        -3.517481        -2.145228         0.719792
 H        -2.740896        -1.835385         2.407509
 H        -3.736991        -0.611067         1.715625
 H        -1.796215         0.251809         1.969687
 H        -2.956827         0.859861        -0.443821
 H        -2.457090        -1.437059        -1.185940
 H        -1.049686        -0.952315        -1.955872
 H         0.980818        -1.976499         0.638183
 H        -0.527542         1.773017         0.845659
 H        -0.506662         2.006496        -0.828754
