19
Iteration:  2441
 C        -2.984894        -1.396787         1.408038
 C        -1.773311        -0.576958         1.174671
 C        -1.920268         0.366274        -0.076270
 C        -1.676892        -0.846129        -0.976379
 C        -0.680065        -1.182491         0.216524
 O        -0.034876        -2.483277         0.514006
 C         0.284056         0.038766         0.138449
 O         1.491826         0.006062         0.069054
 C        -0.686699         1.131730         0.043598
 H        -3.795863        -0.617939         1.702081
 H        -3.455268        -2.014644         0.751906
 H        -2.862509        -1.972803         2.320521
 H        -1.599336        -0.032876         2.022459
 H        -2.806636         1.049696        -0.185466
 H        -2.552178        -1.484526        -0.874730
 H        -1.172646        -0.825651        -1.882842
 H         0.868285        -2.230881         0.625649
 H        -0.382964         1.651608         0.979461
 H        -0.425726         1.809781        -0.799501
