19
Iteration:   516
 C        -2.934967        -1.522038         1.380180
 C        -1.671831        -0.604392         1.192298
 C        -1.960100         0.358337         0.003606
 C        -1.671949        -0.730588        -1.049693
 C        -0.648396        -1.151928         0.203859
 O        -0.180491        -2.426333         0.684817
 C         0.265558         0.035406         0.093347
 O         1.474745        -0.041019         0.115681
 C        -0.614478         1.200570        -0.072137
 H        -3.077276        -2.242272         0.616825
 H        -2.882188        -2.079829         2.337027
 H        -3.942172        -1.141407         1.514684
 H        -1.285816        -0.069018         2.037585
 H        -2.815357         1.081380         0.064166
 H        -2.505454        -1.422414        -1.076076
 H        -1.296737        -0.568991        -2.014612
 H         0.690821        -2.502884         0.378668
 H        -0.430425         2.027654         0.600587
 H        -0.463698         1.485739        -1.139613
