19
Iteration:  3670charge 0 multiplicity 1
 C        -2.928335        -1.412984         1.526730
 C        -1.766156        -0.504279         1.111054
 C        -1.944408         0.320968        -0.191602
 C        -1.542234        -0.987980        -1.023263
 C        -0.632421        -1.202408         0.253773
 O        -0.172531        -2.458063         0.484459
 C         0.283735         0.038685         0.156084
 O         1.479604        -0.004113         0.230821
 C        -0.719536         1.255243        -0.051689
 H        -3.342177        -2.120457         0.776730
 H        -2.560909        -1.934517         2.517659
 H        -3.815418        -0.763996         1.849188
 H        -1.191640         0.083632         1.915187
 H        -2.871650         0.914431        -0.376155
 H        -2.458286        -1.591621        -1.335376
 H        -1.073899        -0.750571        -1.907285
 H         0.596093        -2.277063         1.021603
 H        -0.740712         2.002896         0.820995
 H        -0.595981         1.853955        -0.963644
