19
Iteration:  3525
 C        -2.964699        -1.345104         1.590468
 C        -1.795102        -0.454224         1.097744
 C        -1.943769         0.337972        -0.202587
 C        -1.587173        -0.912063        -1.001225
 C        -0.591948        -1.242366         0.242556
 O        -0.039828        -2.456600         0.474777
 C         0.232496         0.016883         0.160409
 O         1.419928         0.003308         0.365299
 C        -0.702667         1.106501        -0.190237
 H        -3.324030        -2.094748         0.855935
 H        -2.611177        -2.005377         2.340799
 H        -3.798714        -0.665713         1.853894
 H        -1.224220         0.005951         1.882953
 H        -2.901580         0.831501        -0.430894
 H        -2.458790        -1.471600        -1.107281
 H        -1.223043        -0.606568        -1.972157
 H         0.911560        -2.356636         0.260073
 H        -0.869141         1.860386         0.665825
 H        -0.481254         1.774249        -1.010712
