19
Iteration:  3612charge 0 multiplicity 1
 C        -3.017244        -1.637819         1.365193
 C        -1.840695        -0.544497         1.129471
 C        -2.054014         0.391246        -0.129032
 C        -1.553998        -0.868910        -0.913992
 C        -0.639705        -1.080615         0.338861
 O        -0.111896        -2.267969         0.758993
 C         0.329564         0.033632         0.111764
 O         1.527186        -0.134476         0.021885
 C        -0.616087         1.245506        -0.095522
 H        -3.511469        -1.756756         0.290559
 H        -2.779586        -2.657076         1.708355
 H        -3.823207        -1.207317         2.012410
 H        -1.526382        -0.157519         2.206713
 H        -2.933350         0.962864        -0.432753
 H        -2.371809        -1.533109        -0.931892
 H        -1.163726        -0.695792        -1.971354
 H         0.768142        -2.531504         0.395740
 H        -0.339792         1.977806         0.770503
 H        -0.389286         1.694016        -1.076349
