19
Iteration:  3687charge 0 multiplicity 1
 C        -2.987148        -1.343574         1.608686
 C        -1.816371        -0.506497         1.134595
 C        -2.039550         0.317603        -0.168119
 C        -1.619961        -0.884625        -0.973333
 C        -0.631744        -1.184671         0.196690
 O        -0.096406        -2.475780         0.380528
 C         0.361669         0.006389         0.079373
 O         1.544205         0.045924         0.370436
 C        -0.707792         1.137497        -0.155677
 H        -3.145536        -2.207758         0.938522
 H        -2.821556        -1.953625         2.432119
 H        -3.724027        -0.581943         1.715236
 H        -1.542141         0.079937         1.993157
 H        -2.986944         0.763399        -0.431334
 H        -2.253513        -1.728378        -0.845639
 H        -1.084968        -0.924413        -2.019574
 H         0.685260        -2.413660         0.915970
 H        -0.694236         1.704850         0.773523
 H        -0.438291         1.749638        -1.017991
