19
Iteration:  4437charge 0 multiplicity 1
 C        -2.993269        -1.582737         1.429997
 C        -1.863650        -0.513892         1.171372
 C        -2.000759         0.356510        -0.099632
 C        -1.557269        -0.814489        -0.955745
 C        -0.629200        -1.123710         0.353517
 O        -0.164026        -2.363267         0.671665
 C         0.323204         0.038502         0.055903
 O         1.521293        -0.078227         0.030022
 C        -0.594619         1.213162        -0.072942
 H        -3.467970        -1.807428         0.313722
 H        -2.579642        -2.510520         1.907493
 H        -3.952232        -1.265951         1.842926
 H        -1.543393        -0.132313         2.127640
 H        -2.856781         0.898735        -0.411343
 H        -2.210329        -1.695075        -1.145139
 H        -1.050104        -0.553346        -1.883209
 H         0.773181        -2.427013         1.015661
 H        -0.590598         2.010199         0.676359
 H        -0.584522         1.783428        -1.117519
