19
Iteration:  1475
 C        -2.912620        -1.423576         1.546171
 C        -1.750911        -0.514981         1.199244
 C        -1.948617         0.422627        -0.084154
 C        -1.887356        -0.869431        -0.919763
 C        -0.759655        -1.216097         0.155638
 O         0.058604        -2.387799         0.267019
 C         0.292260        -0.009836         0.123246
 O         1.440116        -0.059734         0.526936
 C        -0.565933         1.102486        -0.259204
 H        -3.201997        -2.028046         0.651105
 H        -2.471096        -2.058712         2.350174
 H        -3.816663        -0.790588         1.689820
 H        -1.187495        -0.025194         1.998319
 H        -2.836446         1.056027         0.029499
 H        -2.707949        -1.623514        -1.040318
 H        -1.566499        -0.538225        -1.938445
 H         0.847985        -2.010103         0.591493
 H        -0.473459         2.036325         0.292589
 H        -0.305099         1.357582        -1.316920
