19
Iteration:  3451charge 0 multiplicity 1
 C        -2.755782        -1.429270         1.615566
 C        -1.766157        -0.389671         1.208979
 C        -1.943011         0.352611        -0.222172
 C        -1.675385        -0.878160        -1.037439
 C        -0.634442        -1.226427         0.112006
 O        -0.197162        -2.449498         0.387881
 C         0.243428        -0.014326         0.167084
 O         1.405749         0.037120         0.571108
 C        -0.656863         1.089411        -0.298978
 H        -2.440201        -2.287617         1.117840
 H        -2.564850        -1.671653         2.781012
 H        -3.882306        -1.270367         1.531876
 H        -1.401635         0.338072         1.933805
 H        -2.866203         0.958755        -0.359868
 H        -2.444530        -1.672778        -1.082551
 H        -1.285797        -0.838903        -2.102741
 H         0.754492        -2.289803         0.358016
 H        -0.627393         1.951413         0.381786
 H        -0.461446         1.445772        -1.296064
