19
Iteration:   238charge 0 multiplicity 1
 C        -2.891209        -1.551890         1.493970
 C        -1.795934        -0.527549         1.160050
 C        -2.037999         0.437983        -0.130983
 C        -1.606067        -0.850455        -1.040700
 C        -0.649247        -1.123771         0.229179
 O        -0.134519        -2.348677         0.528370
 C         0.301201         0.038642         0.158026
 O         1.524674        -0.206565         0.074052
 C        -0.703783         1.267149         0.020549
 H        -3.550441        -1.587098         0.624424
 H        -2.482505        -2.478185         1.848176
 H        -3.542943        -1.152010         2.308342
 H        -1.327998        -0.067356         2.025660
 H        -2.937229         0.968943        -0.315973
 H        -2.292061        -1.609360        -1.136496
 H        -1.199540        -0.604476        -2.018357
 H         0.712074        -2.422116         1.096124
 H        -0.795579         1.674337         1.083950
 H        -0.364189         1.992250        -0.704411
