19
Iteration:   627
 C        -3.021146        -1.312997         1.606621
 C        -1.763685        -0.596457         1.209664
 C        -1.987606         0.322812        -0.039674
 C        -1.727786        -0.856399        -1.046771
 C        -0.598341        -1.235305         0.153969
 O         0.016128        -2.420350         0.268074
 C         0.269656         0.021772         0.197907
 O         1.492739        -0.060009         0.383870
 C        -0.667628         1.182299        -0.189824
 H        -3.677281        -1.517089         0.797249
 H        -2.883823        -2.209750         2.225012
 H        -3.454327        -0.544991         2.283298
 H        -1.440171        -0.139568         2.122764
 H        -2.890666         0.912259        -0.063150
 H        -2.306471        -1.678631        -0.858489
 H        -1.462861        -0.725474        -2.118741
 H         0.925398        -2.163934         0.405401
 H        -0.601834         2.096146         0.439801
 H        -0.520257         1.456168        -1.229252
