19
Iteration:  3220charge 0 multiplicity 1
 C        -2.958985        -1.343923         1.572823
 C        -1.752382        -0.507612         1.167768
 C        -1.998686         0.321509        -0.191972
 C        -1.636554        -0.898379        -0.931445
 C        -0.667110        -1.187860         0.241242
 O         0.037735        -2.433253         0.337007
 C         0.271438         0.022049         0.127568
 O         1.461679        -0.044113         0.403598
 C        -0.732082         1.136576        -0.218322
 H        -3.233072        -2.179875         1.053676
 H        -2.821122        -1.727768         2.613087
 H        -3.885458        -0.692640         1.604150
 H        -1.439594         0.047352         2.131735
 H        -2.815115         0.997999        -0.541185
 H        -2.482923        -1.613517        -0.938281
 H        -1.348753        -0.668658        -1.996797
 H         0.823063        -2.417817         0.925043
 H        -0.567709         2.023255         0.448547
 H        -0.655813         1.471048        -1.223103
