19
Iteration:  3176charge 0 multiplicity 1
 C        -2.785939        -1.397737         1.750361
 C        -1.809020        -0.518623         1.056199
 C        -2.029515         0.373982        -0.313787
 C        -1.716224        -0.901031        -1.002396
 C        -0.671429        -1.159315         0.150577
 O        -0.065355        -2.410066         0.312688
 C         0.306852        -0.052876         0.160223
 O         1.426088        -0.027825         0.611574
 C        -0.653889         1.180258        -0.277441
 H        -2.967978        -2.320728         1.313723
 H        -2.324895        -1.594127         2.746539
 H        -3.808841        -0.930373         1.790611
 H        -1.529610         0.266301         1.870453
 H        -3.047529         0.793329        -0.484995
 H        -2.558908        -1.642058        -0.919337
 H        -1.246856        -0.940537        -2.029148
 H         0.852040        -2.259073         0.489826
 H        -0.687538         1.966507         0.504584
 H        -0.277744         1.484483        -1.213961
