19
Iteration:  3969
 C        -2.800197        -1.485747         1.603851
 C        -1.778206        -0.467444         1.112312
 C        -2.008641         0.341543        -0.167929
 C        -1.545684        -0.814896        -1.052053
 C        -0.680394        -1.216835         0.234042
 O        -0.216716        -2.486330         0.517719
 C         0.233251         0.054741         0.157089
 O         1.434014         0.025197         0.401435
 C        -0.632950         1.173201        -0.260354
 H        -3.406633        -2.153305         0.860368
 H        -2.210771        -2.299494         2.078960
 H        -3.589782        -1.040993         2.264118
 H        -1.408891         0.142072         2.001786
 H        -2.977125         0.679074        -0.428263
 H        -2.341779        -1.493387        -1.226812
 H        -1.122478        -0.536679        -1.996165
 H         0.728284        -2.221600         0.407809
 H        -0.464687         2.078738         0.340067
 H        -0.271018         1.324367        -1.382526
