19
Iteration:  4202
 C        -3.121974        -1.377371         1.461813
 C        -1.765299        -0.601504         1.177129
 C        -1.965325         0.364618        -0.126079
 C        -1.560845        -0.900160        -1.010320
 C        -0.625829        -1.238371         0.284722
 O        -0.038791        -2.430283         0.536397
 C         0.271751         0.004248         0.088153
 O         1.480742         0.087780         0.194411
 C        -0.658603         1.133379        -0.115897
 H        -3.737520        -1.683111         0.638508
 H        -2.790329        -2.386800         1.858118
 H        -3.718770        -0.734882         2.163176
 H        -1.319951        -0.013008         1.952276
 H        -2.892109         0.962419        -0.322202
 H        -2.317221        -1.637381        -1.038844
 H        -1.169175        -0.792026        -1.975187
 H         0.802833        -2.285771         0.988931
 H        -0.608467         1.664688         0.925691
 H        -0.338443         1.881556        -0.861076
