19
Iteration:  2354charge 0 multiplicity 1
 C        -2.834914        -1.509680         1.563469
 C        -1.681704        -0.521870         1.137502
 C        -1.945215         0.435823        -0.071563
 C        -1.769151        -0.807962        -0.942353
 C        -0.674912        -1.163083         0.079755
 O        -0.244725        -2.466161         0.338003
 C         0.321543        -0.048475         0.070752
 O         1.488585         0.038283         0.428545
 C        -0.616149         1.151892        -0.153596
 H        -3.528700        -1.766550         0.654215
 H        -2.263258        -2.259511         1.904245
 H        -3.266325        -1.024055         2.440642
 H        -1.308899        -0.011692         2.032949
 H        -3.027181         0.779022         0.049705
 H        -2.519840        -1.632574        -0.875996
 H        -1.487073        -0.770108        -1.984163
 H         0.637478        -2.321523         0.727699
 H        -0.463381         1.777612         0.759008
 H        -0.406155         1.751320        -1.045884
