19
Iteration:   714charge 0 multiplicity 1
 C        -2.768162        -1.481540         1.675730
 C        -1.811156        -0.567842         1.123570
 C        -1.971126         0.382764        -0.211076
 C        -1.618607        -0.752925        -1.088036
 C        -0.697329        -1.177786         0.136008
 O        -0.218843        -2.388190         0.501397
 C         0.275690        -0.034919         0.083918
 O         1.448288        -0.040420         0.298588
 C        -0.666852         1.168380        -0.038902
 H        -3.107017        -2.186125         0.957427
 H        -2.218310        -2.177424         2.264476
 H        -3.627020        -1.126906         2.227231
 H        -1.446591         0.138439         1.847191
 H        -2.834536         1.039325        -0.286683
 H        -2.368460        -1.426690        -1.409609
 H        -0.914492        -0.590797        -1.934640
 H         0.720296        -2.773667         0.438853
 H        -0.546732         1.754191         0.824303
 H        -0.381958         1.889302        -0.764072
