19
Iteration:  2885charge 0 multiplicity 1
 C        -2.990563        -1.396397         1.634426
 C        -1.711089        -0.517937         1.050911
 C        -1.920661         0.316658        -0.232520
 C        -1.739165        -1.018341        -0.980218
 C        -0.640298        -1.227267         0.148744
 O        -0.013578        -2.461282         0.410877
 C         0.299117         0.029899         0.107063
 O         1.383514         0.171361         0.604962
 C        -0.587296         1.168108        -0.337843
 H        -3.316068        -0.977787         2.542636
 H        -3.923313        -1.199061         0.972419
 H        -2.832177        -2.447375         1.975261
 H        -1.087559        -0.027073         1.855502
 H        -2.850908         0.938242        -0.328424
 H        -2.570304        -1.743592        -0.876898
 H        -1.456635        -0.955857        -2.049689
 H         0.431775        -2.390656         1.261488
 H        -0.545679         2.069684         0.277479
 H        -0.417764         1.233353        -1.428220
