19
Iteration:  2747charge 0 multiplicity 1
 C        -3.215668        -1.494929         1.426804
 C        -1.900234        -0.575522         1.178315
 C        -1.912050         0.317157        -0.119711
 C        -1.483439        -0.842824        -0.924503
 C        -0.588796        -1.176542         0.407216
 O        -0.034904        -2.416907         0.678283
 C         0.316532        -0.004070         0.208684
 O         1.509180         0.049184        -0.016461
 C        -0.690052         1.191954        -0.217159
 H        -4.140845        -1.005664         0.913867
 H        -3.153189        -2.479416         1.118533
 H        -3.332608        -1.323364         2.455804
 H        -1.669159        -0.177037         2.114254
 H        -2.824680         0.945530        -0.335520
 H        -2.147997        -1.573351        -1.348606
 H        -0.728850        -0.724530        -1.659320
 H         0.915006        -2.265538         0.513665
 H        -0.607165         2.043978         0.453235
 H        -0.345785         1.573325        -1.186179
