19
Iteration:  2301
 C        -2.882991        -1.438588         1.773501
 C        -1.848089        -0.564578         1.194576
 C        -2.022453         0.436989        -0.137035
 C        -1.641007        -0.813269        -0.990135
 C        -0.676045        -1.168071         0.191439
 O        -0.120103        -2.418207         0.165117
 C         0.252428        -0.043208         0.148078
 O         1.475979        -0.091504         0.340888
 C        -0.599729         1.178070        -0.088588
 H        -2.947922        -2.380656         1.079256
 H        -2.535724        -1.771546         2.701399
 H        -3.784986        -0.858725         1.759177
 H        -1.378039         0.085550         2.021291
 H        -2.845636         1.116367        -0.397750
 H        -2.184016        -1.777083        -1.107787
 H        -1.051745        -0.493472        -1.848109
 H         0.783076        -2.250797         0.225766
 H        -0.440579         2.062053         0.566459
 H        -0.435464         1.485049        -1.061793
