19
Iteration:  2411charge 0 multiplicity 1
 C        -2.974725        -1.489964         1.626445
 C        -1.802431        -0.578549         1.167530
 C        -1.993734         0.361857        -0.108429
 C        -1.599808        -0.772958        -1.047782
 C        -0.703469        -1.138168         0.177968
 O        -0.029000        -2.366497         0.431825
 C         0.285980         0.012999         0.112855
 O         1.486301        -0.185295         0.206893
 C        -0.681143         1.228031        -0.038859
 H        -3.938767        -0.892736         1.342876
 H        -2.992358        -2.504606         1.259434
 H        -3.003415        -1.507087         2.704591
 H        -1.571709         0.108474         2.054703
 H        -2.968299         0.870786        -0.224704
 H        -2.423242        -1.508175        -1.205330
 H        -0.943063        -0.604245        -1.954083
 H         0.873265        -2.115399         0.343037
 H        -0.398390         1.850400         0.849898
 H        -0.451970         1.759480        -0.930789
