19
Iteration:  3274charge 0 multiplicity 1
 C        -2.975974        -1.478508         1.474772
 C        -1.817349        -0.515160         1.182766
 C        -2.024494         0.362684        -0.241772
 C        -1.558476        -0.906679        -0.985644
 C        -0.638022        -1.174052         0.325535
 O        -0.121490        -2.419802         0.634397
 C         0.322502        -0.016675         0.251445
 O         1.512192         0.007997         0.072132
 C        -0.681093         1.242321        -0.142035
 H        -3.569241        -1.761329         0.693224
 H        -2.444231        -2.402605         1.788375
 H        -3.743271        -1.076999         2.182570
 H        -1.598471         0.212383         2.037033
 H        -2.975952         0.981597        -0.269639
 H        -2.269954        -1.733554        -0.987986
 H        -1.008382        -0.630962        -1.947608
 H         0.687368        -2.581826         0.072000
 H        -0.626794         1.734021         0.857812
 H        -0.360875         1.796740        -0.968660
