19
Iteration:  1537
 C        -2.763317        -1.459838         1.689809
 C        -1.839548        -0.438895         0.979903
 C        -1.985390         0.419990        -0.228659
 C        -1.642507        -0.849337        -1.061867
 C        -0.638071        -1.196302         0.101300
 O        -0.273274        -2.538569         0.403420
 C         0.306176        -0.019735         0.185035
 O         1.516972         0.077637         0.349131
 C        -0.659360         1.133629         0.008153
 H        -3.080799        -2.326490         0.960724
 H        -2.264569        -1.958629         2.502229
 H        -3.592591        -1.103425         2.171115
 H        -1.471839         0.099916         1.900114
 H        -2.876535         0.962450        -0.534696
 H        -2.345734        -1.669100        -0.955029
 H        -1.313010        -0.576597        -2.046752
 H         0.624553        -2.422812         0.803721
 H        -0.769891         1.683609         1.015001
 H        -0.283956         1.727704        -0.809211
