19
Iteration:  2127charge 0 multiplicity 1
 C        -2.984414        -1.486831         1.521672
 C        -1.774337        -0.562325         1.206229
 C        -1.979455         0.413855        -0.016780
 C        -1.709726        -0.789222        -0.894693
 C        -0.650831        -1.183942         0.257347
 O        -0.046497        -2.395136         0.341473
 C         0.264451        -0.004515         0.105381
 O         1.489163        -0.073106         0.254175
 C        -0.623578         1.151878        -0.164428
 H        -3.823672        -1.289341         0.799257
 H        -2.654411        -2.527806         1.512081
 H        -3.392250        -1.312152         2.498961
 H        -1.419840        -0.027346         2.049608
 H        -2.905901         0.987252         0.015494
 H        -2.583176        -1.426743        -1.081645
 H        -1.228059        -0.546490        -1.858109
 H         0.934895        -2.269531         0.209466
 H        -0.357235         2.088046         0.426294
 H        -0.292331         1.459885        -1.137611
