19
Iteration:   403
 C        -2.831122        -1.506285         1.488865
 C        -1.690451        -0.556823         1.130753
 C        -1.915161         0.400401        -0.140863
 C        -1.790272        -0.843732        -0.963391
 C        -0.653197        -1.219922         0.150733
 O        -0.189494        -2.498449         0.465731
 C         0.261618         0.017283         0.158444
 O         1.456819         0.066866         0.420674
 C        -0.606557         1.192898        -0.147435
 H        -3.433803        -1.787319         0.591515
 H        -2.397556        -2.210567         2.215856
 H        -3.463606        -0.803711         2.027016
 H        -1.496116         0.026050         2.019407
 H        -2.682109         1.167689        -0.308166
 H        -2.632556        -1.581059        -0.956512
 H        -1.482203        -0.667073        -2.042976
 H         0.703822        -2.499961        -0.002872
 H        -0.436435         2.055417         0.477198
 H        -0.391614         1.510735        -1.178854
