19
Iteration:  2365charge 0 multiplicity 1
 C        -2.789550        -1.492940         1.584608
 C        -1.779158        -0.474822         1.164691
 C        -1.962644         0.425735        -0.078370
 C        -1.741496        -0.836889        -0.976759
 C        -0.669158        -1.201162         0.149615
 O        -0.184452        -2.462468         0.317349
 C         0.309723        -0.023495         0.108592
 O         1.487645        -0.020214         0.388815
 C        -0.638292         1.195326        -0.138352
 H        -3.659831        -1.741804         0.836392
 H        -2.373480        -2.437017         1.656737
 H        -3.360389        -1.368491         2.498501
 H        -1.267097        -0.044473         2.031552
 H        -2.667374         1.270763        -0.293072
 H        -2.608398        -1.544603        -0.895983
 H        -1.407843        -0.625540        -1.991503
 H         0.652219        -2.432732         0.696602
 H        -0.605052         2.002743         0.639569
 H        -0.442897         1.656350        -1.107680
