19
Iteration:  1242charge 0 multiplicity 1
 C        -2.916074        -1.520496         1.599368
 C        -1.746275        -0.531123         1.192583
 C        -2.002512         0.436316        -0.066416
 C        -1.708834        -0.854662        -0.961721
 C        -0.672661        -1.188286         0.139707
 O        -0.149974        -2.460022         0.302578
 C         0.346350        -0.000069         0.153955
 O         1.531772         0.024667         0.444390
 C        -0.627911         1.183649        -0.250446
 H        -3.328102        -1.994143         0.628089
 H        -2.486152        -2.264084         2.308548
 H        -3.876959        -1.160823         1.901012
 H        -1.341908        -0.026689         2.048626
 H        -2.906964         1.071810        -0.186127
 H        -2.577195        -1.516570        -0.965114
 H        -1.433886        -0.503518        -2.021030
 H         0.608139        -2.441949         0.908372
 H        -0.443294         2.196805         0.201515
 H        -0.518233         1.414602        -1.317118
