19
Iteration:   205charge 0 multiplicity 1
 C        -2.810079        -1.609294         1.656639
 C        -1.934118        -0.508168         1.119029
 C        -2.038847         0.454471        -0.180035
 C        -1.513432        -0.770077        -1.079739
 C        -0.731473        -1.142741         0.258109
 O        -0.216229        -2.429795         0.522877
 C         0.273720        -0.017961         0.205709
 O         1.469102        -0.070793         0.117009
 C        -0.566946         1.197814        -0.058432
 H        -3.379044        -2.117226         0.868777
 H        -2.162966        -2.401002         1.971274
 H        -3.445250        -1.234158         2.499905
 H        -1.483492         0.043747         1.942289
 H        -2.862759         1.033522        -0.567410
 H        -2.140813        -1.458058        -1.489394
 H        -0.950137        -0.246678        -1.827887
 H         0.663072        -2.460991         0.230123
 H        -0.519865         1.822777         0.910688
 H        -0.057167         1.891034        -0.693253
