19
Iteration:  2333
 C        -2.794781        -1.428944         1.615249
 C        -1.638544        -0.600895         1.169434
 C        -1.968379         0.364968        -0.025317
 C        -1.736811        -0.803914        -1.021852
 C        -0.665624        -1.212902         0.081068
 O        -0.274742        -2.510215         0.326786
 C         0.314723        -0.003812         0.064580
 O         1.460026         0.032368         0.443756
 C        -0.670956         1.239991        -0.129863
 H        -3.101587        -1.988800         0.640252
 H        -2.515569        -2.052427         2.381208
 H        -3.558067        -0.767531         1.969529
 H        -1.060196        -0.158142         2.037376
 H        -2.699798         1.197767        -0.100752
 H        -2.453885        -1.632743        -1.202582
 H        -1.397489        -0.541708        -2.027865
 H         0.741490        -2.606345         0.567280
 H        -0.577492         2.051442         0.624032
 H        -0.559096         1.600923        -1.115653
