19
Iteration:  4388charge 0 multiplicity 1
 C        -3.043132        -1.389965         1.414821
 C        -1.812598        -0.477270         1.166809
 C        -2.011237         0.342741        -0.105400
 C        -1.534406        -0.898158        -1.026724
 C        -0.673355        -1.224405         0.252052
 O         0.041975        -2.388848         0.619496
 C         0.262694         0.011271         0.171975
 O         1.486007        -0.104750         0.095206
 C        -0.731292         1.223332        -0.056322
 H        -3.607386        -1.643887         0.548680
 H        -2.826723        -2.387745         1.945570
 H        -3.839314        -0.747863         1.975553
 H        -1.493261        -0.068670         2.190353
 H        -3.074884         0.724152        -0.238327
 H        -2.304794        -1.610570        -1.134303
 H        -0.984568        -0.732271        -1.991930
 H         1.067431        -2.235003         0.544850
 H        -0.565121         1.820770         0.896388
 H        -0.429548         1.839691        -0.839225
