19
Iteration:  1844
 C        -2.925145        -1.577317         1.535108
 C        -1.830284        -0.527115         1.175423
 C        -1.960349         0.435969        -0.105527
 C        -1.676372        -0.807577        -0.957255
 C        -0.700791        -1.162349         0.237651
 O        -0.167713        -2.461310         0.394658
 C         0.325909         0.044993         0.132801
 O         1.557833        -0.008498         0.314898
 C        -0.624355         1.196463        -0.173915
 H        -3.642048        -1.926313         0.673163
 H        -2.352996        -2.290574         2.155112
 H        -3.542276        -1.155356         2.309423
 H        -1.508576        -0.164518         2.132330
 H        -2.854733         1.045092        -0.312342
 H        -2.547086        -1.445550        -1.003832
 H        -1.251673        -0.759740        -1.947527
 H         0.792288        -2.311052         0.429609
 H        -0.270055         2.033105         0.431275
 H        -0.503197         1.370927        -1.210536
