19
Iteration:  4950charge 0 multiplicity 1
 C        -2.918224        -1.582540         1.546277
 C        -1.828433        -0.547623         1.054419
 C        -1.983956         0.441777        -0.191734
 C        -1.598862        -0.788880        -1.000657
 C        -0.705415        -1.156189         0.289016
 O        -0.091133        -2.298913         0.658813
 C         0.263370        -0.016232         0.166716
 O         1.487793        -0.095255         0.094411
 C        -0.620767         1.164297        -0.089288
 H        -3.447076        -2.148013         0.672559
 H        -2.677653        -2.278664         2.320871
 H        -3.790325        -1.070771         1.876815
 H        -1.548119        -0.081839         2.029769
 H        -2.907201         0.866490        -0.420225
 H        -2.269012        -1.668564        -1.052046
 H        -1.095609        -0.821885        -1.969555
 H         0.920086        -2.168178         0.585223
 H        -0.617150         1.851758         0.738363
 H        -0.341378         1.769070        -0.989649
