19
Iteration:   959
 C        -2.955476        -1.340209         1.761437
 C        -1.842431        -0.472178         1.146622
 C        -1.975453         0.362416        -0.144615
 C        -1.657781        -0.895299        -1.058510
 C        -0.611296        -1.221886         0.066144
 O         0.080892        -2.443104         0.262609
 C         0.246615        -0.009807         0.187949
 O         1.426677        -0.103686         0.358163
 C        -0.691241         1.175126        -0.083949
 H        -3.671964        -1.809171         1.007706
 H        -2.666268        -2.002010         2.552359
 H        -3.848937        -0.723421         2.185736
 H        -1.460660         0.090058         2.023649
 H        -2.801027         1.004980        -0.308024
 H        -2.510637        -1.576876        -1.117309
 H        -1.118320        -0.608374        -2.002503
 H         0.966744        -2.226047         0.529779
 H        -0.887854         1.850444         0.810583
 H        -0.405659         1.676827        -0.982907
