19
Iteration:  1686
 C        -2.878942        -1.587152         1.686221
 C        -1.867222        -0.521099         1.132715
 C        -1.949555         0.386983        -0.190888
 C        -1.482178        -0.820680        -1.033683
 C        -0.701380        -1.135685         0.246367
 O        -0.248022        -2.428322         0.417369
 C         0.294867         0.017990         0.200137
 O         1.513271        -0.045153         0.170712
 C        -0.664195         1.228095        -0.080612
 H        -3.420672        -2.318344         1.141987
 H        -2.288596        -2.085409         2.511185
 H        -3.755546        -0.945505         2.067031
 H        -1.478418         0.099017         2.016243
 H        -2.735892         0.939031        -0.677361
 H        -2.387604        -1.438873        -1.187837
 H        -0.987559        -0.623760        -2.006266
 H         0.671999        -2.425302         0.304539
 H        -0.750363         1.768050         0.865634
 H        -0.266990         1.897767        -0.832170
