19
Iteration:  1073
 C        -2.966865        -1.482392         1.553427
 C        -1.889264        -0.549362         1.121566
 C        -1.985262         0.360146        -0.114882
 C        -1.532463        -0.755000        -1.071342
 C        -0.645961        -1.149871         0.249840
 O        -0.056931        -2.400292         0.511734
 C         0.276811         0.060719         0.169093
 O         1.456677        -0.191017         0.112329
 C        -0.672674         1.223624         0.027233
 H        -3.373372        -2.017734         0.689493
 H        -2.301271        -2.181092         2.228816
 H        -3.662941        -1.002899         2.367285
 H        -1.530578         0.081688         1.934053
 H        -2.967905         0.867304        -0.351242
 H        -2.213693        -1.621383        -1.053703
 H        -1.155455        -0.437038        -1.997841
 H         0.889270        -2.491492         0.095217
 H        -0.638619         1.911885         0.886644
 H        -0.589129         1.966630        -0.865161
