19
Iteration:  4651charge 0 multiplicity 1
 C        -2.973074        -1.549171         1.490335
 C        -1.820410        -0.475758         1.211040
 C        -1.979215         0.417476        -0.162809
 C        -1.598165        -0.836710        -0.958727
 C        -0.647945        -1.158258         0.240195
 O        -0.082642        -2.431751         0.609162
 C         0.277396        -0.009564         0.056094
 O         1.471269        -0.015157         0.200145
 C        -0.615988         1.160893        -0.154886
 H        -3.282716        -1.956960         0.580609
 H        -2.740287        -2.348698         2.252528
 H        -3.953172        -1.056347         1.801909
 H        -1.649899         0.202213         2.063374
 H        -2.919915         0.979048        -0.410165
 H        -2.470792        -1.610042        -0.990786
 H        -1.108826        -0.705335        -1.977660
 H         0.847857        -2.404703         0.582352
 H        -0.388380         1.945321         0.702105
 H        -0.395498         1.633373        -1.064768
