19
Iteration:  3385charge 0 multiplicity 1
 C        -3.051629        -1.302841         1.522750
 C        -1.890998        -0.548498         1.139885
 C        -2.016561         0.326217        -0.151934
 C        -1.498198        -0.890714        -0.928160
 C        -0.657696        -1.191243         0.268692
 O         0.012660        -2.442689         0.449803
 C         0.277059        -0.006613         0.209554
 O         1.497960         0.006857         0.212108
 C        -0.699066         1.114138        -0.161172
 H        -3.654942        -1.673702         0.708207
 H        -2.598923        -2.289653         1.994016
 H        -3.748859        -0.735447         2.206954
 H        -1.491574        -0.063962         2.117874
 H        -2.942284         0.972267        -0.241515
 H        -2.201595        -1.746382        -0.962383
 H        -0.993579        -0.697400        -1.944623
 H         0.953993        -2.193158         0.480623
 H        -0.815205         2.005841         0.487064
 H        -0.363930         1.501140        -1.092537
