19
Iteration:  3979charge 0 multiplicity 1
 C        -2.797302        -1.507342         1.659300
 C        -1.795369        -0.485899         1.114576
 C        -2.013758         0.402093        -0.201553
 C        -1.564722        -0.827212        -1.103432
 C        -0.701028        -1.133716         0.250523
 O        -0.146531        -2.457814         0.472803
 C         0.272962        -0.056910         0.195676
 O         1.442995        -0.004466         0.461198
 C        -0.717363         1.148443        -0.305330
 H        -3.432036        -1.855932         0.752609
 H        -2.248371        -2.273592         2.293017
 H        -3.440363        -1.061568         2.464879
 H        -1.366559         0.229563         1.864173
 H        -2.859498         1.054610        -0.405752
 H        -2.342360        -1.496867        -1.318175
 H        -0.981930        -0.565307        -1.991595
 H         0.789629        -2.616466         0.456839
 H        -0.643609         2.106140         0.235339
 H        -0.560025         1.513915        -1.462708
