19
Iteration:  4608charge 0 multiplicity 1
 C        -2.831541        -1.467031         1.671094
 C        -1.856585        -0.492311         1.172712
 C        -2.012918         0.353244        -0.250661
 C        -1.546769        -0.869897        -1.047127
 C        -0.630127        -1.146434         0.174652
 O        -0.174427        -2.473950         0.455607
 C         0.272843        -0.008105         0.126391
 O         1.452828        -0.029142         0.368952
 C        -0.673400         1.243484        -0.214242
 H        -3.377130        -1.829784         0.875370
 H        -2.410799        -2.346864         2.272867
 H        -3.454828        -0.856550         2.425582
 H        -1.259690         0.007433         2.036935
 H        -2.910050         0.818742        -0.719920
 H        -2.466841        -1.634256        -0.965292
 H        -1.044080        -0.634256        -2.119257
 H         0.713626        -2.443394         0.955943
 H        -0.633226         1.996373         0.677769
 H        -0.409181         1.729147        -1.088958
