19
Iteration:  2535
 C        -2.848273        -1.480936         1.466281
 C        -1.778958        -0.537415         1.119915
 C        -2.073524         0.441581        -0.155026
 C        -1.673820        -0.839523        -0.984169
 C        -0.699069        -1.113113         0.170353
 O        -0.065426        -2.360971         0.576249
 C         0.281380         0.002924         0.123635
 O         1.479013        -0.175955         0.247158
 C        -0.635619         1.184316        -0.090598
 H        -2.567492        -2.039314         2.297895
 H        -3.924363        -1.071966         1.796339
 H        -3.039517        -2.314986         0.704143
 H        -1.382862         0.012772         2.028319
 H        -2.850267         1.134671        -0.419762
 H        -2.422175        -1.614698        -0.750615
 H        -1.239948        -0.798794        -2.055382
 H         0.915091        -2.230510         0.610680
 H        -0.644853         1.773092         0.815555
 H        -0.461580         1.958540        -0.867223
