19
Iteration:  2555
 C        -2.919991        -1.475690         1.568773
 C        -1.811774        -0.518476         1.170248
 C        -1.946807         0.361486        -0.132731
 C        -1.601444        -0.841017        -1.054652
 C        -0.733358        -1.235193         0.266248
 O        -0.092926        -2.384630         0.458394
 C         0.268523         0.017231         0.143553
 O         1.477117        -0.076545         0.307354
 C        -0.657792         1.217881        -0.173537
 H        -2.460445        -2.250709         2.143431
 H        -3.706322        -0.974219         2.306370
 H        -3.519290        -1.967617         0.731508
 H        -1.461407        -0.015730         2.027721
 H        -2.875491         0.863356        -0.307203
 H        -2.422406        -1.544783        -1.143537
 H        -1.054224        -0.351681        -1.934010
 H         0.923467        -2.143970         0.405225
 H        -0.395750         2.105778         0.439760
 H        -0.480251         1.454246        -1.232674
