19
Iteration:  3467
 C        -2.710599        -1.544156         1.644529
 C        -1.804255        -0.401445         1.081204
 C        -2.056746         0.455103        -0.198980
 C        -1.682073        -0.931196        -0.943267
 C        -0.721852        -1.148667         0.211152
 O        -0.151438        -2.451600         0.356201
 C         0.299349        -0.025185         0.111200
 O         1.401706         0.001746         0.611062
 C        -0.558688         1.174849        -0.368728
 H        -2.624066        -2.485217         0.988722
 H        -2.687445        -1.591136         2.719508
 H        -3.756059        -1.246869         1.551759
 H        -1.329418         0.097000         1.991624
 H        -2.997969         1.012569        -0.363344
 H        -2.564139        -1.610336        -1.083523
 H        -1.285916        -0.776069        -2.010143
 H         0.747720        -2.396268         0.680655
 H        -0.486042         2.108777         0.238129
 H        -0.342241         1.249998        -1.487027
