19
Iteration:  4013
 C        -2.800133        -1.354456         1.691838
 C        -1.778076        -0.488505         1.039635
 C        -1.948558         0.311910        -0.242258
 C        -1.719702        -0.993693        -1.064534
 C        -0.641924        -1.192003         0.151131
 O        -0.005866        -2.354845         0.330714
 C         0.190697        -0.006959         0.144306
 O         1.328738        -0.052243         0.548221
 C        -0.596262         1.206720        -0.151033
 H        -3.535456        -1.738713         0.845798
 H        -2.409241        -2.308484         2.059400
 H        -3.364949        -0.642018         2.363391
 H        -1.398716         0.114958         1.893317
 H        -2.799864         0.915837        -0.321916
 H        -2.574023        -1.608302        -0.895812
 H        -1.379327        -1.077228        -2.065060
 H         0.715566        -2.366340         1.048820
 H        -0.566594         2.009462         0.612887
 H        -0.461294         1.531830        -1.293440
