19
Iteration:  4571charge 0 multiplicity 1
 C        -2.909339        -1.344833         1.691206
 C        -1.719787        -0.544493         1.141727
 C        -2.021388         0.372284        -0.200924
 C        -1.690761        -0.872385        -1.027672
 C        -0.632705        -1.252824         0.114442
 O        -0.071874        -2.419425         0.380876
 C         0.267543        -0.006494         0.213424
 O         1.443204         0.010037         0.512562
 C        -0.639212         1.116334        -0.271310
 H        -3.445735        -1.959315         0.804634
 H        -2.598429        -2.206642         2.297747
 H        -3.553944        -0.688236         2.321437
 H        -1.278948        -0.027871         1.970434
 H        -2.968872         0.853028        -0.553021
 H        -2.469627        -1.612539        -1.054779
 H        -1.522025        -0.569227        -2.070391
 H         0.907449        -2.192556         0.262001
 H        -0.636497         2.040893         0.326955
 H        -0.360485         1.413776        -1.381832
