19
Iteration:  2319
 C        -2.824988        -1.425146         1.659007
 C        -1.674110        -0.505992         1.165476
 C        -1.958132         0.401801        -0.036106
 C        -1.631468        -0.747403        -1.029106
 C        -0.688954        -1.201261         0.134951
 O        -0.203075        -2.556485         0.252749
 C         0.260509         0.019564         0.171862
 O         1.469192        -0.029645         0.397875
 C        -0.682787         1.184089        -0.181654
 H        -3.211474        -2.317413         1.105821
 H        -2.563775        -1.931902         2.593118
 H        -3.805235        -0.938705         1.928471
 H        -1.272903        -0.030769         2.026778
 H        -3.039353         0.656743        -0.002599
 H        -2.534622        -1.356742        -1.138446
 H        -1.156132        -0.528035        -1.990334
 H         0.710011        -2.440710         0.273269
 H        -0.616337         2.002247         0.541091
 H        -0.503600         1.666983        -1.223408
