19
Iteration:   740
 C        -2.915863        -1.493691         1.532587
 C        -1.861416        -0.530822         1.123126
 C        -1.962699         0.375769        -0.117925
 C        -1.612798        -0.849595        -0.932177
 C        -0.690441        -1.156515         0.255270
 O        -0.170463        -2.435311         0.406302
 C         0.302437         0.062558         0.248966
 O         1.533759        -0.066080         0.163539
 C        -0.636003         1.235829        -0.130141
 H        -3.213239        -2.284656         0.761606
 H        -2.391901        -2.153555         2.270339
 H        -3.821423        -1.152481         2.074432
 H        -1.467611         0.042752         1.962762
 H        -2.867500         1.010025        -0.149695
 H        -2.401012        -1.664191        -0.968731
 H        -1.159714        -0.697845        -1.906023
 H         0.811543        -2.565838         0.479727
 H        -0.631893         2.024977         0.703709
 H        -0.285831         1.855940        -0.967357
