19
Iteration:  1718charge 0 multiplicity 1
 C        -2.815917        -1.474938         1.442221
 C        -1.648091        -0.519126         1.102363
 C        -1.996550         0.436017         0.030546
 C        -1.758363        -0.839988        -1.008577
 C        -0.682117        -1.203005         0.138553
 O        -0.158218        -2.430021         0.473883
 C         0.284141        -0.047728         0.092058
 O         1.449133        -0.012072         0.388871
 C        -0.646579         1.137637        -0.183269
 H        -3.007621        -2.265006         0.850377
 H        -2.518598        -1.806700         2.472119
 H        -3.614311        -0.733171         1.625756
 H        -1.309815        -0.231920         2.159957
 H        -2.900604         1.016184        -0.028236
 H        -2.682969        -1.453751        -1.011257
 H        -1.416179        -0.559624        -2.037548
 H         0.858411        -2.233633         0.474362
 H        -0.509259         1.872024         0.602751
 H        -0.528899         1.712494        -1.138006
