19
Iteration:  3151charge 0 multiplicity 1
 C        -2.757413        -1.356324         1.713144
 C        -1.662868        -0.533196         1.182773
 C        -1.917734         0.323954        -0.140629
 C        -1.609928        -0.906598        -1.145880
 C        -0.647431        -1.192952         0.001617
 O        -0.174168        -2.460366         0.438909
 C         0.234738        -0.003129         0.066634
 O         1.328215         0.027922         0.574471
 C        -0.717143         1.192510        -0.267047
 H        -3.102436        -2.105267         0.885167
 H        -2.450905        -1.945257         2.520521
 H        -3.668106        -0.883224         2.008341
 H        -1.284304         0.069051         2.048085
 H        -2.852851         0.805136        -0.312103
 H        -2.396193        -1.685115        -1.349218
 H        -1.103688        -0.641140        -2.060174
 H         0.432907        -2.357297         1.237088
 H        -0.691033         2.057398         0.368577
 H        -0.553460         1.427648        -1.344616
