19
Iteration:  3247charge 0 multiplicity 1
 C        -3.015920        -1.338020         1.527186
 C        -1.744027        -0.614892         1.178037
 C        -2.001549         0.297847        -0.071173
 C        -1.585270        -0.949817        -1.023844
 C        -0.682562        -1.229673         0.134908
 O        -0.083786        -2.426730         0.573081
 C         0.285728         0.022326         0.066682
 O         1.497323         0.076355         0.254321
 C        -0.644013         1.213294        -0.121173
 H        -3.619719        -2.035432         0.736950
 H        -2.772122        -2.073303         2.313433
 H        -3.829852        -0.664919         1.782049
 H        -1.416336        -0.158942         2.089638
 H        -2.873337         0.922267        -0.263020
 H        -2.357322        -1.718251        -1.138074
 H        -1.253298        -0.555066        -1.965954
 H         0.898819        -2.288547         0.707498
 H        -0.262642         1.943207         0.585959
 H        -0.611228         1.536279        -1.231347
