19
Iteration:  3023
 C        -3.112167        -1.532874         1.395860
 C        -1.987553        -0.489460         1.207002
 C        -1.999473         0.364087        -0.216262
 C        -1.507126        -0.925630        -0.872438
 C        -0.664405        -1.093723         0.388421
 O        -0.040608        -2.367750         0.728743
 C         0.379013         0.000137         0.044093
 O         1.591083         0.012403        -0.029102
 C        -0.660015         1.157665        -0.062130
 H        -4.035875        -1.236898         0.918085
 H        -2.926546        -2.478956         0.843553
 H        -3.313618        -1.751231         2.482945
 H        -1.731652        -0.001832         2.126688
 H        -2.775889         0.990113        -0.648787
 H        -2.369063        -1.650308        -0.806507
 H        -0.972954        -0.919048        -1.813300
 H         0.893321        -2.493620         0.351393
 H        -0.762188         1.889375         0.810921
 H        -0.320650         1.695627        -0.930675
