19
Iteration:  3258
 C        -3.001826        -1.415535         1.503401
 C        -1.809898        -0.550100         1.098669
 C        -1.948821         0.368585        -0.101187
 C        -1.591226        -0.880118        -0.995569
 C        -0.635266        -1.203826         0.284436
 O        -0.080572        -2.484501         0.620627
 C         0.273502         0.021251         0.067232
 O         1.486118         0.079348         0.186020
 C        -0.670542         1.131214        -0.091352
 H        -3.501884        -1.844288         0.511065
 H        -2.741513        -2.177811         2.241220
 H        -3.614587        -0.714160         2.065037
 H        -1.315529        -0.119881         1.943019
 H        -2.866760         0.812618        -0.442968
 H        -2.481476        -1.514919        -1.088993
 H        -1.131385        -0.727769        -1.969841
 H         0.808785        -2.377890         0.302617
 H        -0.671775         1.957870         0.613638
 H        -0.496204         1.644056        -1.121996
