19
Iteration:    94charge 0 multiplicity 1
 C        -2.887991        -1.387931         1.795246
 C        -1.780910        -0.552056         1.067457
 C        -2.000984         0.416896        -0.140207
 C        -1.590322        -0.892417        -1.105588
 C        -0.720693        -1.190203         0.155035
 O        -0.050589        -2.376813         0.221149
 C         0.219244        -0.056527         0.199326
 O         1.420218        -0.145943         0.372263
 C        -0.650266         1.247230        -0.064938
 H        -2.781825        -2.488982         1.786968
 H        -2.792527        -1.167902         2.880982
 H        -3.858318        -1.012307         1.326825
 H        -1.370487         0.024452         1.921687
 H        -2.981481         1.013042        -0.246219
 H        -2.457189        -1.639267        -1.219800
 H        -0.867913        -0.643718        -1.861723
 H         0.869030        -2.170384         0.239164
 H        -0.654907         1.838766         0.902711
 H        -0.214779         1.698169        -0.969641
