19
Iteration:  2760charge 0 multiplicity 1
 C        -3.088110        -1.414095         1.363295
 C        -1.863702        -0.585139         1.168453
 C        -2.000197         0.400438        -0.143670
 C        -1.429249        -0.930521        -0.910762
 C        -0.706364        -1.189628         0.404504
 O        -0.009367        -2.360063         0.688321
 C         0.281913         0.010083         0.126665
 O         1.509614        -0.035729         0.042004
 C        -0.684434         1.190627        -0.139911
 H        -4.043840        -0.972653         0.923370
 H        -2.977640        -2.367108         0.939308
 H        -3.315876        -1.693493         2.380575
 H        -1.516791        -0.082296         2.099329
 H        -2.959867         0.791315        -0.394358
 H        -2.150630        -1.694996        -0.875997
 H        -1.040446        -0.693348        -1.848239
 H         0.966521        -2.173303         0.382837
 H        -0.734771         2.028406         0.595028
 H        -0.478326         1.524035        -1.164250
