19
Iteration:  1666
 C        -2.878450        -1.471112         1.675120
 C        -1.896811        -0.489167         1.090869
 C        -2.014249         0.391754        -0.186461
 C        -1.358086        -0.822712        -1.025332
 C        -0.694019        -1.179229         0.310844
 O        -0.169943        -2.466612         0.422866
 C         0.228652        -0.024099         0.235444
 O         1.401030        -0.080095         0.033815
 C        -0.617733         1.240094         0.056841
 H        -3.392045        -1.932588         0.680698
 H        -2.272674        -2.290585         2.083398
 H        -3.786274        -0.973525         2.260479
 H        -1.586728         0.123469         1.902733
 H        -2.975689         0.921556        -0.392075
 H        -1.966116        -1.681890        -1.313319
 H        -0.714679        -0.524936        -1.827225
 H         0.771728        -2.313648         0.601906
 H        -0.573726         2.077481         0.805384
 H        -0.574565         1.705345        -0.861510
