19
Iteration:   552charge 0 multiplicity 1
 C        -2.908979        -1.633940         1.535517
 C        -1.839438        -0.450231         1.208944
 C        -1.976925         0.422144        -0.117413
 C        -1.611540        -0.803834        -0.980173
 C        -0.640292        -1.083244         0.314748
 O        -0.266465        -2.418387         0.481786
 C         0.334047         0.076632         0.092596
 O         1.556546        -0.076453         0.132906
 C        -0.636153         1.143774        -0.095376
 H        -2.895469        -2.272252         0.634692
 H        -2.491254        -2.331984         2.238069
 H        -3.932249        -1.199353         1.771322
 H        -1.673728         0.144168         2.140014
 H        -2.930059         0.900879        -0.182265
 H        -2.198841        -1.663251        -0.934243
 H        -1.162716        -0.695197        -1.996829
 H         0.650859        -2.494389         0.456464
 H        -0.355947         1.955073         0.712180
 H        -0.438881         1.636575        -1.041997
