19
Iteration:  4168
 C        -3.085067        -1.470811         1.367673
 C        -1.812685        -0.573515         1.206577
 C        -1.937806         0.376696        -0.107083
 C        -1.532396        -0.864546        -1.007761
 C        -0.598183        -1.127882         0.373373
 O        -0.081594        -2.341750         0.642780
 C         0.292122         0.021654         0.235597
 O         1.495142        -0.079706         0.013861
 C        -0.713821         1.169968        -0.098007
 H        -3.233612        -1.894791         0.337750
 H        -2.808923        -2.380355         1.966891
 H        -4.038015        -1.160533         1.897658
 H        -1.752815        -0.087360         2.172527
 H        -2.856839         0.927774        -0.230374
 H        -2.258773        -1.670898        -1.181767
 H        -1.018416        -0.613467        -1.875595
 H         0.833701        -2.275069         0.158663
 H        -0.585244         1.876765         0.787232
 H        -0.375611         1.758467        -1.038798
