19
Iteration:  3183
 C        -2.829129        -1.398850         1.747963
 C        -1.861643        -0.446491         1.176873
 C        -1.970693         0.365436        -0.355803
 C        -1.742548        -0.932115        -1.008206
 C        -0.625240        -1.197398         0.179326
 O        -0.063184        -2.383219         0.276665
 C         0.276923        -0.037350         0.155706
 O         1.448024        -0.030428         0.601624
 C        -0.659047         1.130784        -0.245794
 H        -2.767753        -2.412681         1.151237
 H        -2.393162        -1.604428         2.680188
 H        -3.809978        -0.978095         1.794968
 H        -1.539184         0.304636         1.839603
 H        -2.848032         0.882608        -0.693791
 H        -2.522512        -1.708901        -0.922603
 H        -1.318279        -0.948032        -1.985769
 H         0.872404        -2.077763         0.198150
 H        -0.686342         1.929677         0.489995
 H        -0.345506         1.536141        -1.259294
