19
Iteration:  3332charge 0 multiplicity 1
 C        -2.968782        -1.539162         1.338526
 C        -1.862512        -0.531386         1.160125
 C        -1.978052         0.358978        -0.119161
 C        -1.659788        -0.811967        -1.026695
 C        -0.656094        -1.155811         0.297586
 O        -0.058605        -2.345614         0.805018
 C         0.315002        -0.040975         0.123482
 O         1.506637        -0.060987         0.015335
 C        -0.639455         1.161295        -0.050324
 H        -3.642526        -1.512802         0.562593
 H        -2.514414        -2.544774         1.402677
 H        -3.409145        -1.425797         2.311680
 H        -1.711313         0.233317         1.978493
 H        -2.856186         1.041674        -0.138693
 H        -2.537235        -1.396786        -1.356732
 H        -1.048754        -0.653812        -1.968546
 H         0.834024        -2.044200         0.948612
 H        -0.525293         1.988369         0.633850
 H        -0.494134         1.639049        -1.037141
