19
Iteration:  5000charge 0 multiplicity 1
 C        -3.017819        -1.434549         1.460080
 C        -1.821251        -0.573353         1.171470
 C        -1.949068         0.380516        -0.105596
 C        -1.547181        -0.914165        -1.037156
 C        -0.621330        -1.178683         0.382603
 O        -0.102483        -2.378038         0.570099
 C         0.295100         0.079923         0.171601
 O         1.504803        -0.027223         0.079438
 C        -0.692687         1.168162        -0.129350
 H        -3.558807        -1.825494         0.640792
 H        -2.664963        -2.338019         2.041000
 H        -3.801035        -1.071691         2.268266
 H        -1.603157        -0.225631         2.183972
 H        -2.913752         0.968266        -0.295018
 H        -2.473046        -1.700078        -1.140766
 H        -1.017394        -0.703605        -2.049453
 H         0.857795        -2.459490         0.686639
 H        -0.682243         2.085376         0.599435
 H        -0.460107         1.538083        -1.152064
