19
Iteration:   489charge 0 multiplicity 1
 C        -3.055313        -1.431049         1.506866
 C        -1.867000        -0.536789         1.159944
 C        -1.952235         0.361311        -0.100383
 C        -1.577674        -0.815110        -0.964044
 C        -0.692775        -1.162197         0.257252
 O        -0.028313        -2.381741         0.477084
 C         0.334458        -0.013424         0.106019
 O         1.558960        -0.103004         0.122160
 C        -0.701328         1.176118        -0.028053
 H        -3.320917        -2.228772         0.747527
 H        -2.786153        -2.010590         2.407240
 H        -4.005862        -1.021877         1.872186
 H        -1.530655         0.130605         1.986633
 H        -2.864841         0.924545        -0.261182
 H        -2.503756        -1.456504        -0.923460
 H        -1.154421        -0.821928        -2.039558
 H         0.860468        -2.105286         0.310681
 H        -0.555382         1.593010         0.998855
 H        -0.613835         1.918348        -0.803163
