19
Iteration:  3401
 C        -3.050905        -1.395601         1.652293
 C        -1.798446        -0.498624         1.097563
 C        -1.992453         0.325224        -0.164275
 C        -1.569008        -0.914943        -1.045135
 C        -0.602102        -1.213477         0.283969
 O        -0.018642        -2.440971         0.385107
 C         0.248275        -0.020822         0.150992
 O         1.456385         0.049866         0.311928
 C        -0.673227         1.144712        -0.130734
 H        -3.610695        -1.851698         0.787465
 H        -2.910062        -1.942991         2.498455
 H        -3.631921        -0.585651         2.037710
 H        -1.348367         0.152412         1.878161
 H        -2.911375         0.699658        -0.540862
 H        -2.367831        -1.638646        -1.318655
 H        -1.072848        -0.743568        -1.984979
 H         0.778864        -2.251879         0.981054
 H        -0.414691         1.845801         0.669372
 H        -0.393522         1.567659        -1.156885
