19
Iteration:  2833charge 0 multiplicity 1
 C        -2.858309        -1.461139         1.637030
 C        -1.808025        -0.519716         1.138247
 C        -2.040274         0.314444        -0.270813
 C        -1.469503        -0.887640        -1.077611
 C        -0.706063        -1.138989         0.262290
 O        -0.202538        -2.437919         0.545361
 C         0.302103         0.029778         0.225184
 O         1.507826         0.032175         0.404144
 C        -0.733505         1.169899        -0.335946
 H        -3.588318        -0.972968         2.395618
 H        -3.526644        -1.768903         0.839435
 H        -2.469992        -2.341949         2.085773
 H        -1.422013         0.119179         2.018312
 H        -3.007400         0.837068        -0.621709
 H        -2.283827        -1.621693        -1.236632
 H        -0.722278        -0.736784        -1.934094
 H         0.833949        -2.392557         0.473705
 H        -0.604781         1.963757         0.361739
 H        -0.469678         1.443013        -1.365713
