19
Iteration:  3405
 C        -3.035769        -1.394313         1.675589
 C        -1.801871        -0.485118         1.125486
 C        -1.939123         0.298998        -0.158341
 C        -1.566330        -0.933995        -1.090485
 C        -0.650475        -1.212414         0.256019
 O        -0.025434        -2.448635         0.386976
 C         0.270390        -0.011890         0.126260
 O         1.461204         0.053679         0.344685
 C        -0.685311         1.167665        -0.155878
 H        -3.567895        -1.944647         0.813335
 H        -2.860749        -2.018334         2.641418
 H        -3.750881        -0.526750         1.942438
 H        -1.276347         0.029602         1.907627
 H        -2.917728         0.723667        -0.528639
 H        -2.431965        -1.545051        -1.248555
 H        -1.111462        -0.744047        -2.080799
 H         0.677899        -2.265595         0.996888
 H        -0.563828         1.914647         0.709953
 H        -0.398248         1.659380        -1.065735
