19
Iteration:   963
 C        -2.947506        -1.325279         1.729711
 C        -1.841979        -0.491598         1.183106
 C        -1.979402         0.357840        -0.170445
 C        -1.655579        -0.898799        -1.054280
 C        -0.627086        -1.219989         0.087341
 O         0.075753        -2.453860         0.269526
 C         0.234417         0.035598         0.207640
 O         1.424765        -0.093266         0.345648
 C        -0.661142         1.179552        -0.068792
 H        -3.607803        -1.750370         1.028372
 H        -2.643475        -2.035869         2.544474
 H        -3.839073        -0.813568         2.072693
 H        -1.402345         0.074930         2.010681
 H        -2.924424         0.969103        -0.344111
 H        -2.561131        -1.475251        -1.119587
 H        -1.289198        -0.683946        -2.059982
 H         1.084881        -2.442130         0.451342
 H        -0.814410         1.763422         0.826938
 H        -0.400366         1.608754        -1.090034
