19
Iteration:   371
 C        -2.708518        -1.586834         1.619542
 C        -1.787503        -0.457166         1.151592
 C        -2.008467         0.388240        -0.138123
 C        -1.605263        -0.767519        -1.045484
 C        -0.725542        -1.148171         0.232926
 O        -0.280192        -2.376418         0.362467
 C         0.316770         0.015308         0.091245
 O         1.489851        -0.133104         0.473867
 C        -0.652689         1.181667        -0.238638
 H        -3.167826        -2.305214         0.870779
 H        -2.243427        -2.249356         2.424832
 H        -3.541455        -1.166356         2.177064
 H        -1.630089         0.157257         2.016272
 H        -2.809550         1.093747        -0.442740
 H        -2.280991        -1.593676        -1.315741
 H        -1.010414        -0.502754        -1.882992
 H         0.650268        -2.343659         0.699854
 H        -0.631193         2.054692         0.407828
 H        -0.774776         1.614113        -1.270505
