19
Iteration:  2665charge 0 multiplicity 1
 C        -2.856410        -1.547268         1.612272
 C        -1.881023        -0.558984         1.111025
 C        -2.017938         0.338457        -0.175516
 C        -1.627830        -0.775816        -1.087805
 C        -0.662403        -1.118284         0.296729
 O        -0.085476        -2.339397         0.526887
 C         0.255574         0.075044         0.133210
 O         1.466201        -0.123335         0.396952
 C        -0.622851         1.141810        -0.319708
 H        -3.245994        -2.137047         0.829750
 H        -2.391418        -2.190410         2.468426
 H        -3.757383        -1.053445         2.112218
 H        -1.539771         0.048360         1.958308
 H        -2.831963         0.993422        -0.299531
 H        -2.453288        -1.533589        -1.061409
 H        -1.196384        -0.503986        -2.114448
 H         0.900299        -1.989037         0.622541
 H        -0.393129         1.956026         0.378411
 H        -0.366051         1.266642        -1.373038
