19
Iteration:  2847
 C        -2.879062        -1.404302         1.605021
 C        -1.790849        -0.397394         1.075188
 C        -1.988103         0.280386        -0.226890
 C        -1.502556        -0.987676        -0.995330
 C        -0.555148        -1.185292         0.185071
 O        -0.238732        -2.483067         0.467905
 C         0.290617         0.036121         0.132108
 O         1.438403         0.105232         0.476484
 C        -0.718856         1.138824        -0.238015
 H        -3.322065        -0.855810         2.545823
 H        -3.589301        -1.687401         0.877867
 H        -2.456793        -2.397907         1.877407
 H        -1.465144         0.241184         1.905527
 H        -2.953011         0.734443        -0.403648
 H        -2.134473        -1.860864        -1.023568
 H        -1.095111        -0.785042        -1.989860
 H         0.641494        -2.581467         0.761482
 H        -0.744027         2.123669         0.295004
 H        -0.487239         1.463816        -1.257122
