19
Iteration:  3734charge 0 multiplicity 1
 C        -2.925615        -1.332911         1.634521
 C        -1.706785        -0.515986         1.149322
 C        -1.973412         0.391031        -0.157178
 C        -1.656587        -0.934283        -0.972044
 C        -0.635106        -1.190837         0.191155
 O        -0.007597        -2.402534         0.307815
 C         0.239494         0.002619         0.151482
 O         1.374161        -0.062786         0.589191
 C        -0.688739         1.144210        -0.413926
 H        -3.242350        -2.103932         0.975023
 H        -2.649880        -1.983223         2.468312
 H        -3.721698        -0.612899         1.854597
 H        -1.303971        -0.113896         2.116044
 H        -2.945674         0.910740        -0.081857
 H        -2.457376        -1.739023        -1.003918
 H        -1.379264        -0.619553        -1.917345
 H         0.959567        -2.413378         0.403483
 H        -0.584237         1.975357         0.386195
 H        -0.513472         1.491966        -1.409768
