19
Iteration:  4519
 C        -2.928958        -1.349182         1.620818
 C        -1.789327        -0.471359         1.182100
 C        -1.973553         0.351997        -0.116496
 C        -1.606460        -0.896297        -1.045127
 C        -0.609877        -1.222681         0.174326
 O        -0.041124        -2.427152         0.339087
 C         0.224688         0.008072         0.184671
 O         1.421278        -0.042036         0.395119
 C        -0.663867         1.110690        -0.203623
 H        -3.204383        -2.024355         0.877133
 H        -2.697898        -1.905805         2.540405
 H        -3.754803        -0.686162         1.900293
 H        -1.416393         0.108567         2.119004
 H        -2.938005         0.935980        -0.225910
 H        -2.514687        -1.570797        -1.035564
 H        -1.115695        -0.858499        -2.105641
 H         0.886133        -2.147605         0.660825
 H        -0.766210         2.081157         0.334072
 H        -0.524923         1.309599        -1.231831
