19
Iteration:  1322
 C        -3.071082        -1.517914         1.620298
 C        -1.901740        -0.614205         1.104307
 C        -1.995047         0.409743        -0.104868
 C        -1.519393        -0.782459        -1.064169
 C        -0.717137        -1.158097         0.214090
 O         0.009417        -2.314704         0.494328
 C         0.291451        -0.000707         0.130189
 O         1.488467        -0.174864         0.143154
 C        -0.606565         1.221811        -0.014359
 H        -3.570873        -2.239969         0.913941
 H        -2.619710        -2.152451         2.387443
 H        -3.720258        -0.788858         2.191722
 H        -1.533475        -0.060157         1.921779
 H        -2.937257         0.954502        -0.245773
 H        -2.400463        -1.434810        -1.282478
 H        -1.128554        -0.666669        -2.084089
 H         0.991961        -1.971585         0.542828
 H        -0.621723         1.831146         0.872110
 H        -0.323813         1.773490        -0.907706
