19
Iteration:  3240
 C        -3.041097        -1.342719         1.561612
 C        -1.729526        -0.629693         1.171421
 C        -1.991820         0.299113        -0.058828
 C        -1.623353        -0.930194        -1.031539
 C        -0.649905        -1.243866         0.130594
 O        -0.073528        -2.378639         0.507799
 C         0.286963         0.010770         0.090931
 O         1.508418         0.049727         0.299605
 C        -0.662529         1.195477        -0.209166
 H        -3.322904        -2.015796         0.768611
 H        -3.000867        -1.926723         2.462345
 H        -3.854087        -0.637092         1.810707
 H        -1.432097        -0.117296         2.110200
 H        -2.954102         0.795467         0.066706
 H        -2.324783        -1.777863        -1.197433
 H        -1.145921        -0.748453        -2.006327
 H         0.757709        -2.233215         0.918184
 H        -0.426159         1.998846         0.541368
 H        -0.450893         1.731305        -1.115620
