19
Iteration:  2102charge 0 multiplicity 1
 C        -2.920978        -1.361589         1.469707
 C        -1.708893        -0.547864         1.243476
 C        -1.949722         0.367033         0.014390
 C        -1.691499        -0.943739        -0.917181
 C        -0.618513        -1.184945         0.235823
 O        -0.117051        -2.492612         0.218436
 C         0.328251         0.060446         0.080939
 O         1.514469        -0.035814         0.324754
 C        -0.746974         1.240730        -0.126809
 H        -3.712187        -1.353283         0.619176
 H        -2.576946        -2.308770         1.698128
 H        -3.467720        -1.062480         2.417289
 H        -1.277479         0.012669         2.138863
 H        -2.961503         0.871155        -0.079381
 H        -2.589868        -1.560743        -0.790592
 H        -1.575495        -0.768750        -2.023678
 H         0.513497        -2.616428         1.027968
 H        -0.687854         2.130574         0.495301
 H        -0.450396         1.660748        -1.065212
