19
Iteration:   131
 C        -3.017254        -1.399958         1.601670
 C        -1.819311        -0.460583         1.236972
 C        -2.018163         0.385683         0.004856
 C        -1.711845        -0.824999        -0.912300
 C        -0.662130        -1.232011         0.102573
 O         0.033920        -2.454251         0.197765
 C         0.315727        -0.027273         0.117958
 O         1.483961        -0.048387         0.366333
 C        -0.627003         1.121028        -0.170029
 H        -3.089750        -2.405100         1.175304
 H        -3.065424        -1.467168         2.676542
 H        -3.943200        -0.879684         1.400297
 H        -1.365352         0.104933         2.076316
 H        -2.920011         0.925700        -0.040619
 H        -2.402507        -1.562405        -1.079093
 H        -1.211712        -0.643131        -1.863990
 H         0.834281        -2.171507         0.643294
 H        -0.393369         1.955029         0.486502
 H        -0.380674         1.551178        -1.146404
