19
Iteration:  2970charge 0 multiplicity 1
 C        -2.944856        -1.462066         1.541873
 C        -1.835505        -0.509900         1.107402
 C        -2.014358         0.274905        -0.164355
 C        -1.522732        -0.874025        -1.100620
 C        -0.685141        -1.168445         0.295396
 O        -0.143852        -2.432658         0.706843
 C         0.324448        -0.014085         0.114324
 O         1.539450         0.039175         0.173461
 C        -0.698379         1.192229        -0.221917
 H        -3.844702        -0.854113         1.661153
 H        -3.179239        -2.158994         0.608575
 H        -2.600852        -2.117232         2.436779
 H        -1.420566         0.118931         1.903581
 H        -2.950475         0.805772        -0.331001
 H        -2.311112        -1.597870        -1.425373
 H        -0.922788        -0.566787        -1.940389
 H         0.536275        -2.213433         1.456267
 H        -0.753993         1.737892         0.811433
 H        -0.496956         1.989962        -0.991341
