19
Iteration:  2065
 C        -2.916751        -1.412415         1.785285
 C        -1.805260        -0.583236         1.086689
 C        -1.948025         0.377487        -0.117122
 C        -1.592151        -0.763817        -1.114564
 C        -0.630997        -1.245948         0.108624
 O        -0.201656        -2.563506         0.291693
 C         0.288882         0.020223         0.124684
 O         1.485777         0.093178         0.344330
 C        -0.673002         1.199186        -0.048178
 H        -3.562947        -1.991068         1.210589
 H        -2.241195        -2.228208         2.315612
 H        -3.478432        -0.844504         2.513918
 H        -1.310947        -0.113328         2.027627
 H        -2.873963         0.909891        -0.119181
 H        -2.503604        -1.363098        -1.230982
 H        -1.127484        -0.576402        -2.091961
 H         0.633513        -2.609544         0.879627
 H        -0.534298         1.978490         0.684634
 H        -0.357855         1.380112        -1.141159
