19
Iteration:  2962
 C        -2.929545        -1.426041         1.556635
 C        -1.910846        -0.541276         1.090557
 C        -1.993711         0.266079        -0.243307
 C        -1.618516        -0.901974        -1.110710
 C        -0.668149        -1.147051         0.270979
 O        -0.110988        -2.423768         0.690253
 C         0.344027         0.065948         0.027958
 O         1.542143         0.024849         0.263907
 C        -0.649648         1.145293        -0.163193
 H        -3.699049        -0.861171         2.048063
 H        -3.305664        -2.157232         0.723723
 H        -2.506075        -2.060691         2.378405
 H        -1.532932        -0.001089         2.025475
 H        -2.957897         0.853678        -0.266266
 H        -2.333655        -1.675573        -1.333900
 H        -1.061629        -0.654811        -2.037677
 H         0.604454        -2.115549         1.368367
 H        -0.729901         1.722940         0.760782
 H        -0.392302         1.913396        -0.943429
