19
Iteration:  2553charge 0 multiplicity 1
 C        -2.924774        -1.495539         1.565118
 C        -1.812272        -0.497114         1.152737
 C        -1.934947         0.372840        -0.133210
 C        -1.615157        -0.841816        -1.049019
 C        -0.702482        -1.236294         0.262129
 O        -0.092801        -2.371117         0.469883
 C         0.261833         0.019064         0.139942
 O         1.474973        -0.092082         0.301945
 C        -0.667552         1.213224        -0.168733
 H        -2.446760        -2.291320         2.216457
 H        -3.650256        -0.960814         2.174741
 H        -3.467878        -1.949537         0.736653
 H        -1.473086         0.012546         2.011709
 H        -2.911804         0.850225        -0.231965
 H        -2.459592        -1.528228        -1.166590
 H        -1.077413        -0.412208        -1.900737
 H         0.851206        -2.149649         0.406890
 H        -0.435009         2.092046         0.518764
 H        -0.436373         1.446703        -1.200165
