19
Iteration:  4802
 C        -2.830039        -1.469299         1.572882
 C        -1.783575        -0.468378         1.123488
 C        -2.038074         0.385054        -0.173370
 C        -1.666344        -0.939193        -1.001235
 C        -0.712559        -1.167736         0.112905
 O        -0.138268        -2.335277         0.471303
 C         0.309206        -0.040618         0.046943
 O         1.458376        -0.012209         0.453975
 C        -0.607337         1.146426        -0.169402
 H        -3.362191        -2.019836         0.868103
 H        -2.260876        -2.297003         2.117949
 H        -3.587436        -1.094672         2.310664
 H        -1.381336         0.053642         2.094440
 H        -2.893594         1.103668        -0.467103
 H        -2.489621        -1.803656        -0.866265
 H        -1.296600        -0.933056        -2.067811
 H         0.790351        -2.173085         0.844884
 H        -0.445268         2.001296         0.511232
 H        -0.389182         1.485630        -1.156599
