19
Iteration:  3280
 C        -2.967037        -1.520887         1.468467
 C        -1.856084        -0.479127         1.188644
 C        -2.042377         0.358336        -0.208195
 C        -1.519796        -0.958391        -0.991908
 C        -0.653013        -1.103870         0.332496
 O        -0.156422        -2.404699         0.648999
 C         0.314136         0.033989         0.236961
 O         1.532408        -0.041988         0.041927
 C        -0.651739         1.237779        -0.080280
 H        -3.583429        -1.723933         0.454973
 H        -2.428039        -2.416633         1.767839
 H        -3.558657        -1.217891         2.326297
 H        -1.460551         0.099227         2.010116
 H        -2.952934         0.842161        -0.562450
 H        -2.179936        -1.840771        -1.094602
 H        -1.092324        -0.618754        -1.905240
 H         0.614008        -2.438632        -0.004459
 H        -0.616450         1.936442         0.774793
 H        -0.382098         1.827684        -1.029099
