19
Iteration:  3869charge 0 multiplicity 1
 C        -3.139880        -1.389362         1.377588
 C        -1.946843        -0.538568         1.147040
 C        -2.006394         0.327541        -0.092123
 C        -1.489162        -0.874953        -0.985783
 C        -0.605631        -1.142184         0.304886
 O         0.061127        -2.318102         0.626141
 C         0.288625        -0.021129         0.103494
 O         1.520539        -0.153304         0.023594
 C        -0.691348         1.176307         0.032261
 H        -3.232819        -2.173986         0.578406
 H        -3.012002        -1.994028         2.380499
 H        -4.027643        -0.824111         1.711554
 H        -1.663110         0.155481         2.019359
 H        -2.978460         0.864513        -0.167088
 H        -2.228919        -1.597045        -0.984062
 H        -0.919683        -0.895759        -1.904697
 H         0.951928        -1.958287         0.570503
 H        -0.594341         1.873669         0.888989
 H        -0.641551         1.750420        -1.000527
