19
Iteration:  1161charge 0 multiplicity 1
 C        -2.963445        -1.478594         1.700019
 C        -1.745778        -0.511395         1.189142
 C        -1.977361         0.397159        -0.153797
 C        -1.598680        -0.824092        -1.061561
 C        -0.685074        -1.223414         0.142767
 O        -0.101618        -2.471789         0.329064
 C         0.240337        -0.002519         0.160256
 O         1.456400         0.000240         0.353567
 C        -0.618399         1.186646        -0.140936
 H        -3.468004        -2.032039         0.989313
 H        -2.659729        -2.303928         2.401242
 H        -3.592174        -0.874038         2.358572
 H        -1.437466         0.032558         2.082015
 H        -2.832528         1.067779        -0.230201
 H        -2.480786        -1.460598        -1.346590
 H        -0.985805        -0.624320        -1.895764
 H         0.815301        -2.260409         0.402533
 H        -0.488908         1.973400         0.607958
 H        -0.501537         1.611593        -1.184947
