19
Iteration:  3005
 C        -3.027003        -1.536689         1.371421
 C        -1.873952        -0.476842         1.150740
 C        -1.939870         0.314868        -0.149758
 C        -1.471557        -0.982390        -0.873750
 C        -0.644561        -1.141164         0.506843
 O        -0.207197        -2.422325         0.631255
 C         0.349391         0.111755         0.263374
 O         1.504546         0.031128        -0.064719
 C        -0.623660         1.243985        -0.204642
 H        -4.029118        -1.167761         1.179932
 H        -2.854515        -2.528009         0.730387
 H        -3.124942        -1.894105         2.445082
 H        -1.822720         0.204806         2.031185
 H        -2.905620         0.806833        -0.466099
 H        -2.188606        -1.774109        -0.936687
 H        -0.926384        -0.897611        -1.833532
 H         0.810480        -2.502573         0.661782
 H        -0.650411         1.933893         0.675672
 H        -0.424582         1.795516        -1.181689
