19
Iteration:  1491
 C        -2.868486        -1.492899         1.521540
 C        -1.694772        -0.526301         1.194063
 C        -1.993966         0.439223         0.026416
 C        -1.731089        -0.779218        -0.952209
 C        -0.626031        -1.190642         0.164969
 O        -0.091123        -2.415214         0.306183
 C         0.269988        -0.029840         0.113248
 O         1.404533        -0.076811         0.552455
 C        -0.641804         1.181983        -0.396606
 H        -3.026333        -2.206615         0.714875
 H        -2.689442        -2.026161         2.455321
 H        -3.746933        -0.930507         1.879647
 H        -1.360445        -0.129697         2.163954
 H        -2.873127         1.089185        -0.134594
 H        -2.639929        -1.319665        -0.780218
 H        -1.281130        -0.764383        -1.934055
 H         0.917988        -2.258252         0.358826
 H        -0.321315         2.133237         0.103259
 H        -0.695935         1.170599        -1.476895
