19
Iteration:  4012
 C        -2.807172        -1.358677         1.695375
 C        -1.778366        -0.486315         1.037057
 C        -1.951649         0.299508        -0.237301
 C        -1.715199        -0.991618        -1.063581
 C        -0.645285        -1.181094         0.148349
 O        -0.010643        -2.352472         0.335072
 C         0.195451        -0.006674         0.141825
 O         1.331178        -0.054912         0.549210
 C        -0.592990         1.209497        -0.151470
 H        -3.518367        -1.747961         0.853310
 H        -2.388569        -2.337688         2.069057
 H        -3.343002        -0.645419         2.377228
 H        -1.409655         0.123788         1.878427
 H        -2.824020         0.914128        -0.345367
 H        -2.571417        -1.582589        -0.898701
 H        -1.376764        -1.059145        -2.106204
 H         0.730207        -2.391549         1.030724
 H        -0.563957         2.009023         0.598687
 H        -0.456311         1.533884        -1.308575
