19
Iteration:  4188charge 0 multiplicity 1
 C        -3.032791        -1.431902         1.372101
 C        -1.833152        -0.595990         1.101359
 C        -1.974317         0.359692        -0.118826
 C        -1.594693        -0.934541        -0.891459
 C        -0.620524        -1.162891         0.270648
 O        -0.051763        -2.447011         0.607948
 C         0.311351         0.031070         0.104005
 O         1.537359         0.010004         0.113285
 C        -0.694981         1.238427        -0.014353
 H        -3.682977        -1.450109         0.379578
 H        -3.010524        -2.246568         2.079556
 H        -3.701673        -0.745068         2.007826
 H        -1.631681        -0.284786         2.129751
 H        -2.886820         0.821994        -0.305454
 H        -2.433056        -1.663842        -1.106808
 H        -1.023276        -0.762674        -1.858275
 H         0.949378        -2.308549         0.702225
 H        -0.620905         1.935599         0.755793
 H        -0.585696         1.761461        -1.064867
