19
Iteration:  4217
 C        -3.009231        -1.352612         1.597117
 C        -1.867178        -0.484782         1.125167
 C        -1.942193         0.266011        -0.160990
 C        -1.563155        -0.917196        -1.039459
 C        -0.690744        -1.208243         0.194261
 O        -0.033862        -2.454916         0.448998
 C         0.293468        -0.021674         0.169119
 O         1.497827         0.075224         0.290268
 C        -0.662669         1.152354        -0.109004
 H        -3.550105        -1.585052         0.665452
 H        -2.793421        -2.346756         1.998356
 H        -3.684727        -0.883062         2.267283
 H        -1.520448        -0.053026         2.093490
 H        -2.968461         0.702538        -0.293152
 H        -2.407893        -1.629983        -1.210942
 H        -0.976092        -0.624634        -1.981179
 H         0.742979        -2.121404         0.896706
 H        -0.594831         2.002115         0.660848
 H        -0.499972         1.521152        -1.100595
