19
Iteration:  4943charge 0 multiplicity 1
 C        -2.926552        -1.545136         1.534317
 C        -1.877600        -0.589218         1.083008
 C        -2.005336         0.387119        -0.161017
 C        -1.587273        -0.814595        -0.975043
 C        -0.647030        -1.140083         0.251900
 O        -0.089071        -2.333941         0.650594
 C         0.273688         0.031165         0.190422
 O         1.473427        -0.104491         0.103235
 C        -0.612175         1.183259        -0.106497
 H        -3.330252        -2.225840         0.767442
 H        -2.538072        -2.256364         2.359501
 H        -3.879318        -0.984472         1.859733
 H        -1.597488        -0.052246         1.964508
 H        -2.949241         0.967215        -0.571709
 H        -2.422552        -1.444551        -1.129428
 H        -1.160895        -0.607174        -2.115660
 H         0.930986        -2.206880         0.604693
 H        -0.424125         2.024627         0.641872
 H        -0.326432         1.762724        -1.102982
