19
Iteration:  1613charge 0 multiplicity 1
 C        -3.114795        -1.437965         1.301204
 C        -1.795500        -0.609294         1.250225
 C        -1.920803         0.439529         0.022098
 C        -1.755382        -0.856762        -0.871630
 C        -0.624734        -1.190807         0.172438
 O         0.049768        -2.330653         0.604966
 C         0.289369        -0.023835         0.060304
 O         1.509417        -0.040436         0.098019
 C        -0.581824         1.144417        -0.064889
 H        -3.761442        -1.728548         0.387004
 H        -2.820412        -2.320298         1.749245
 H        -3.931710        -1.016328         1.856013
 H        -1.573483        -0.329363         2.244698
 H        -2.863336         0.994197         0.087680
 H        -2.649875        -1.439183        -0.930251
 H        -1.354073        -0.728099        -1.843316
 H         0.848367        -2.478114         0.164596
 H        -0.522116         1.927456         0.767588
 H        -0.397931         1.589151        -1.025688
