19
Iteration:  1822
 C        -2.858140        -1.408705         1.700807
 C        -1.718546        -0.600242         1.130159
 C        -2.017015         0.326772        -0.093622
 C        -1.614632        -0.795625        -1.149943
 C        -0.653460        -1.188877         0.085281
 O        -0.189729        -2.453538         0.382297
 C         0.270726        -0.021172         0.184025
 O         1.491557         0.000796         0.355334
 C        -0.687566         1.182236        -0.108984
 H        -3.589052        -1.626528         0.805040
 H        -2.603709        -2.242388         2.388130
 H        -3.485737        -0.763442         2.331732
 H        -1.279453        -0.027685         1.926946
 H        -2.885976         0.996662        -0.206468
 H        -2.231522        -1.617398        -1.470823
 H        -1.072405        -0.471036        -2.022681
 H         0.671915        -2.339579         0.824593
 H        -0.744361         1.834623         0.785897
 H        -0.402142         1.676919        -1.000682
