19
Iteration:  1524
 C        -2.746137        -1.505853         1.643864
 C        -1.773920        -0.493993         1.143804
 C        -1.995631         0.369682        -0.170489
 C        -1.624312        -0.830007        -1.090650
 C        -0.699848        -1.203205         0.128891
 O        -0.303061        -2.484435         0.383873
 C         0.308834        -0.022324         0.162421
 O         1.507835         0.066221         0.433227
 C        -0.659453         1.172845        -0.125824
 H        -3.025666        -2.268802         0.929267
 H        -2.196261        -1.910670         2.446792
 H        -3.624467        -0.924031         1.769651
 H        -1.317513         0.131345         1.886110
 H        -2.883786         1.012246        -0.259616
 H        -2.561289        -1.383136        -1.132622
 H        -1.200705        -0.906794        -2.079986
 H         0.681940        -2.488118         0.591059
 H        -0.539124         1.985329         0.656215
 H        -0.465588         1.711014        -1.042805
