19
Iteration:   520charge 0 multiplicity 1
 C        -2.897866        -1.524375         1.395808
 C        -1.695554        -0.592319         1.178143
 C        -1.881696         0.389784         0.015464
 C        -1.660650        -0.711007        -1.038190
 C        -0.667917        -1.193077         0.209086
 O        -0.211122        -2.421825         0.684058
 C         0.270918         0.034086         0.123479
 O         1.468400        -0.035310         0.109817
 C        -0.661628         1.184607        -0.107720
 H        -3.006022        -2.234058         0.536785
 H        -2.810908        -2.143640         2.282717
 H        -4.011555        -1.197346         1.428739
 H        -1.324523        -0.091946         2.129733
 H        -2.851255         0.859711         0.041896
 H        -2.502605        -1.351616        -0.978362
 H        -1.276241        -0.559006        -2.107595
 H         0.786226        -2.562652         0.378554
 H        -0.337807         2.105782         0.546960
 H        -0.584407         1.552723        -1.128294
