19
Iteration:  3756charge 0 multiplicity 1
 C        -2.807923        -1.354974         1.639043
 C        -1.724812        -0.431016         1.144992
 C        -2.037776         0.326320        -0.226643
 C        -1.685516        -0.940705        -1.074285
 C        -0.720787        -1.230339         0.052722
 O        -0.038750        -2.393628         0.396482
 C         0.278283        -0.017683         0.085642
 O         1.400557        -0.038677         0.595170
 C        -0.627786         1.148144        -0.208954
 H        -3.243062        -1.978721         0.926356
 H        -2.516791        -2.161080         2.313440
 H        -3.577591        -0.778237         2.142701
 H        -1.253797         0.135502         1.966849
 H        -2.955453         0.933876        -0.416358
 H        -2.542903        -1.668573        -0.870610
 H        -1.459806        -0.778037        -2.073380
 H         0.738657        -2.184202         1.027492
 H        -0.442378         2.045782         0.503022
 H        -0.753203         1.465584        -1.195656
