19
Iteration:  1219charge 0 multiplicity 1
 C        -2.707871        -1.512778         1.594222
 C        -1.746046        -0.427274         1.084476
 C        -1.972762         0.412775        -0.191151
 C        -1.664642        -0.858340        -0.958862
 C        -0.714447        -1.149985         0.173907
 O        -0.153884        -2.415159         0.331378
 C         0.211802        -0.042623         0.123277
 O         1.374857        -0.114538         0.479988
 C        -0.640447         1.213377        -0.145048
 H        -3.265768        -2.089189         0.815644
 H        -1.968058        -2.084752         2.229918
 H        -3.592034        -1.166897         2.123545
 H        -1.378538         0.203087         1.867519
 H        -2.909231         0.961493        -0.266534
 H        -2.550176        -1.476128        -0.887517
 H        -1.197075        -0.832553        -2.002430
 H         0.827796        -2.301194         0.434198
 H        -0.433615         1.918845         0.704217
 H        -0.399249         1.831612        -1.030075
