19
Iteration:  4714
 C        -3.024931        -1.399345         1.452725
 C        -1.903062        -0.559225         1.149058
 C        -1.989779         0.342973        -0.135483
 C        -1.567953        -0.925050        -0.944793
 C        -0.671272        -1.209198         0.285564
 O         0.044100        -2.439554         0.555767
 C         0.273248         0.023690         0.108886
 O         1.494164        -0.038218         0.098153
 C        -0.640182         1.207588        -0.021619
 H        -3.525720        -2.075562         0.749089
 H        -2.743979        -1.840914         2.432015
 H        -3.750787        -0.611227         1.708298
 H        -1.792857         0.228057         1.911053
 H        -2.965073         0.875346        -0.461922
 H        -2.482859        -1.424713        -1.206193
 H        -1.112901        -0.986190        -1.870923
 H         0.933525        -1.988810         0.641229
 H        -0.518724         1.840855         0.862285
 H        -0.493121         1.954998        -0.821531
