19
Iteration:  1077
 C        -2.979652        -1.496087         1.595073
 C        -1.877169        -0.541221         1.107285
 C        -1.987344         0.336313        -0.109359
 C        -1.521115        -0.742266        -1.066330
 C        -0.612695        -1.159906         0.236110
 O        -0.045753        -2.395984         0.514564
 C         0.254631         0.028880         0.156061
 O         1.434626        -0.171697         0.115541
 C        -0.647108         1.240449         0.021917
 H        -3.561920        -1.870470         0.726231
 H        -2.395578        -2.135305         2.179582
 H        -3.759500        -1.056902         2.156687
 H        -1.509480         0.011530         1.982386
 H        -2.906572         0.865255        -0.232580
 H        -2.235859        -1.586319        -1.066660
 H        -1.156119        -0.394938        -2.073917
 H         0.791946        -2.367414         0.094643
 H        -0.668787         1.923886         0.872169
 H        -0.508160         1.808402        -0.870256
