19
Iteration:  4821
 C        -2.822722        -1.435962         1.661346
 C        -1.789668        -0.463819         1.092307
 C        -1.967483         0.361026        -0.228835
 C        -1.698717        -0.893833        -1.022567
 C        -0.613113        -1.226044         0.212659
 O        -0.078023        -2.424845         0.412658
 C         0.258973         0.036218         0.156996
 O         1.428171        -0.105465         0.470763
 C        -0.712864         1.226344        -0.276895
 H        -3.340962        -1.938011         0.807851
 H        -2.384187        -2.285742         2.175997
 H        -3.474643        -0.886842         2.320221
 H        -1.457058         0.246342         1.907469
 H        -2.937749         0.873757        -0.307122
 H        -2.442933        -1.521161        -1.002022
 H        -1.146300        -0.568585        -1.962060
 H         0.888737        -2.270788         0.750116
 H        -0.771750         1.964125         0.477535
 H        -0.524682         1.732981        -1.300745
