19
Iteration:   423
 C        -3.028604        -1.388490         1.587652
 C        -1.724405        -0.580677         1.121073
 C        -2.055150         0.340321        -0.045359
 C        -1.666724        -0.845792        -1.038085
 C        -0.648824        -1.258387         0.089775
 O        -0.125152        -2.427267         0.441107
 C         0.351568         0.009774         0.095168
 O         1.562806         0.064991         0.393982
 C        -0.614687         1.159937        -0.161298
 H        -3.642665        -1.641134         0.685976
 H        -2.745848        -2.183436         2.259788
 H        -3.767623        -0.787291         2.195522
 H        -1.244009        -0.221048         2.075730
 H        -3.035261         0.743035        -0.058585
 H        -2.481044        -1.589347        -1.031735
 H        -1.256526        -0.769279        -2.170191
 H         0.755134        -2.529217         0.206801
 H        -0.544848         1.787483         0.769308
 H        -0.526534         1.861983        -0.940638
