19
Iteration:   251charge 0 multiplicity 1
 C        -2.974375        -1.454206         1.422829
 C        -1.823589        -0.544533         1.156309
 C        -2.028531         0.324357        -0.040400
 C        -1.649369        -0.801892        -0.933698
 C        -0.703411        -1.148169         0.261181
 O        -0.079295        -2.400529         0.499858
 C         0.307584        -0.018257         0.066408
 O         1.540854        -0.076787         0.107724
 C        -0.587021         1.192942         0.006107
 H        -3.555109        -1.754815         0.548667
 H        -2.563606        -2.434998         1.683786
 H        -3.609175        -1.104098         2.183900
 H        -1.543294        -0.034313         2.083410
 H        -2.947110         0.847196        -0.173500
 H        -2.387013        -1.528978        -1.092976
 H        -1.164706        -0.569622        -1.810968
 H         0.728609        -2.021247         0.771108
 H        -0.445843         1.886233         0.841034
 H        -0.524810         1.859285        -0.884586
