19
Iteration:  1347
 C        -2.970893        -1.579627         1.444774
 C        -1.796303        -0.561584         1.182762
 C        -1.986751         0.464192        -0.034348
 C        -1.588513        -0.678033        -0.991635
 C        -0.716516        -1.143157         0.323931
 O        -0.035805        -2.376843         0.589573
 C         0.242764        -0.020277         0.105881
 O         1.449937        -0.198776         0.127644
 C        -0.625419         1.227806        -0.144969
 H        -3.114431        -2.095161         0.549481
 H        -2.530784        -2.439004         2.078386
 H        -3.907750        -1.133512         2.010186
 H        -1.383208         0.024062         2.062574
 H        -2.942097         0.979686        -0.167485
 H        -2.316133        -1.446135        -1.426393
 H        -1.015916        -0.501327        -1.929931
 H         0.880680        -2.164402         0.467719
 H        -0.678741         2.021343         0.594620
 H        -0.454421         1.563905        -1.205867
