19
Iteration:  3409charge 0 multiplicity 1
 C        -3.021852        -1.366656         1.688998
 C        -1.808846        -0.508912         1.156373
 C        -1.911721         0.287013        -0.177083
 C        -1.554013        -0.941858        -1.108630
 C        -0.701660        -1.217851         0.199875
 O        -0.039162        -2.453635         0.392209
 C         0.290986         0.005210         0.106687
 O         1.469826         0.053227         0.375437
 C        -0.689973         1.187169        -0.166837
 H        -3.423062        -2.015663         0.977818
 H        -2.796486        -2.011962         2.590595
 H        -3.818576        -0.626447         1.862283
 H        -1.267984        -0.024533         2.043398
 H        -2.859291         0.787293        -0.400681
 H        -2.519242        -1.552799        -1.137552
 H        -1.101326        -0.734412        -2.118216
 H         0.707196        -2.309091         1.062586
 H        -0.759463         1.894507         0.638831
 H        -0.417877         1.781615        -1.057785
