19
Iteration:  1687charge 0 multiplicity 1
 C        -2.875640        -1.587875         1.694536
 C        -1.861853        -0.517573         1.134900
 C        -1.954012         0.380857        -0.193004
 C        -1.496630        -0.816954        -1.036330
 C        -0.696329        -1.138786         0.232958
 O        -0.249555        -2.428042         0.422791
 C         0.296047         0.016064         0.202042
 O         1.522896        -0.043704         0.177965
 C        -0.655096         1.227750        -0.083994
 H        -3.425026        -2.350824         1.077876
 H        -2.309237        -2.088813         2.511952
 H        -3.768624        -0.919623         2.039904
 H        -1.499691         0.076482         2.008891
 H        -2.744224         0.931668        -0.698616
 H        -2.399853        -1.427446        -1.174011
 H        -1.041773        -0.601444        -1.997807
 H         0.684938        -2.419765         0.301850
 H        -0.758403         1.787251         0.871732
 H        -0.326861         1.910968        -0.830960
