19
Iteration:  2566
 C        -2.977192        -1.411064         1.636441
 C        -1.819455        -0.598993         1.201812
 C        -2.028155         0.369614        -0.108111
 C        -1.526946        -0.806196        -1.009999
 C        -0.750684        -1.152921         0.220326
 O        -0.080327        -2.476660         0.398366
 C         0.269914         0.003569         0.168030
 O         1.478576         0.005227         0.339373
 C        -0.600956         1.167826        -0.250971
 H        -2.530698        -2.335921         1.950197
 H        -3.576811        -1.034226         2.586159
 H        -3.654398        -1.724453         0.760742
 H        -1.329323        -0.177132         2.021172
 H        -2.851864         0.945299        -0.439857
 H        -2.253414        -1.554843        -1.338046
 H        -0.992480        -0.748467        -2.047143
 H         0.932680        -2.188514         0.505012
 H        -0.515567         2.108267         0.341450
 H        -0.536004         1.503978        -1.288155
