19
Iteration:   551
 C        -2.906028        -1.635434         1.523927
 C        -1.828223        -0.451759         1.214325
 C        -1.986309         0.430117        -0.118857
 C        -1.617257        -0.800991        -0.976353
 C        -0.643744        -1.084352         0.315781
 O        -0.267363        -2.428137         0.490653
 C         0.331169         0.083079         0.083963
 O         1.556804        -0.075436         0.133785
 C        -0.634264         1.143837        -0.095642
 H        -2.921308        -2.282580         0.657562
 H        -2.500956        -2.332216         2.243419
 H        -3.922582        -1.225572         1.747038
 H        -1.680428         0.135442         2.130838
 H        -2.930234         0.907672        -0.153726
 H        -2.156588        -1.642662        -0.957275
 H        -1.143347        -0.692658        -1.958876
 H         0.658511        -2.493800         0.445182
 H        -0.339772         1.948695         0.665676
 H        -0.417347         1.639339        -1.037717
