19
Iteration:  3174charge 0 multiplicity 1
 C        -2.775634        -1.398308         1.757185
 C        -1.786476        -0.515086         1.018265
 C        -2.050420         0.375244        -0.288884
 C        -1.692314        -0.903880        -1.009910
 C        -0.692693        -1.153387         0.138382
 O        -0.065792        -2.419975         0.324156
 C         0.303161        -0.040146         0.164139
 O         1.420892        -0.029244         0.611698
 C        -0.654655         1.185073        -0.282218
 H        -3.038299        -2.379838         1.314043
 H        -2.401836        -1.586192         2.717358
 H        -3.758709        -0.927901         1.835244
 H        -1.493184         0.186412         1.845312
 H        -3.034066         0.805486        -0.406235
 H        -2.564584        -1.622590        -0.924406
 H        -1.270775        -0.925888        -2.018190
 H         0.858216        -2.338341         0.601472
 H        -0.660214         1.975278         0.470774
 H        -0.265722         1.520973        -1.232031
