19
Iteration:  4314
 C        -2.823375        -1.439129         1.647975
 C        -1.715965        -0.497740         1.129738
 C        -1.987587         0.382198        -0.158452
 C        -1.594300        -0.947593        -1.021276
 C        -0.673387        -1.158558         0.164015
 O        -0.206564        -2.382060         0.365497
 C         0.241668        -0.037551         0.174854
 O         1.417917         0.029458         0.532398
 C        -0.645897         1.159683        -0.341280
 H        -2.886778        -2.199959         0.906693
 H        -2.638519        -2.164566         2.470696
 H        -3.805790        -0.970260         1.707810
 H        -1.419947         0.039946         1.967518
 H        -2.872867         1.088808        -0.239974
 H        -2.210768        -1.793107        -0.914876
 H        -1.199489        -0.834595        -1.946964
 H         0.799114        -2.484760         0.509665
 H        -0.486169         1.985100         0.474024
 H        -0.415872         1.558122        -1.303815
