19
Iteration:  1830charge 0 multiplicity 1
 C        -2.903073        -1.439528         1.678375
 C        -1.779429        -0.580423         1.120475
 C        -1.979847         0.339620        -0.054374
 C        -1.613919        -0.797455        -1.085731
 C        -0.727080        -1.218953         0.108451
 O        -0.196707        -2.424458         0.392422
 C         0.339891         0.000832         0.166544
 O         1.543140         0.010258         0.341478
 C        -0.644750         1.163979        -0.130418
 H        -3.447829        -1.926226         0.831121
 H        -2.559352        -2.346047         2.031880
 H        -3.683106        -1.020575         2.347573
 H        -1.196173         0.072534         1.851494
 H        -2.965537         0.866047        -0.156379
 H        -2.427723        -1.497963        -1.303286
 H        -1.172565        -0.422701        -2.011424
 H         0.750303        -2.297395         0.740608
 H        -0.886776         2.102125         0.509106
 H        -0.389310         1.592109        -1.082288
