19
Iteration:  1033
 C        -2.835268        -1.581490         1.478469
 C        -1.797389        -0.546568         1.155131
 C        -1.971518         0.440422        -0.040859
 C        -1.630150        -0.809012        -1.015434
 C        -0.645418        -1.135126         0.237779
 O        -0.234565        -2.466469         0.509161
 C         0.274271         0.059600         0.163255
 O         1.483961        -0.012440         0.137294
 C        -0.619064         1.190463        -0.090202
 H        -3.287760        -2.249961         0.735826
 H        -2.323526        -2.133388         2.217069
 H        -3.748612        -1.257220         1.821379
 H        -1.596891        -0.150072         2.166550
 H        -2.720492         1.116666        -0.372550
 H        -2.550797        -1.436560        -1.170729
 H        -1.088676        -0.626022        -1.992892
 H         0.583311        -2.286119         0.986726
 H        -0.316369         1.765857         0.776428
 H        -0.385001         1.615900        -1.032066
