19
Iteration:   677charge 0 multiplicity 1
 C        -2.860909        -1.490455         1.661574
 C        -1.735732        -0.493919         1.116723
 C        -1.992777         0.395242        -0.125321
 C        -1.661162        -0.805040        -0.980966
 C        -0.635948        -1.221019         0.134594
 O        -0.185147        -2.424852         0.343155
 C         0.281533         0.050576         0.166730
 O         1.470869        -0.069914         0.397637
 C        -0.671616         1.169886        -0.183721
 H        -3.314689        -1.898153         0.763808
 H        -2.311864        -2.285856         2.230834
 H        -3.601478        -1.063453         2.330869
 H        -1.233173        -0.066877         2.021493
 H        -2.919302         0.947440        -0.303942
 H        -2.553237        -1.474041        -1.124402
 H        -1.221650        -0.600304        -1.988815
 H         0.817154        -2.259387         0.573331
 H        -0.661271         1.970311         0.543031
 H        -0.391370         1.496223        -1.233844
