19
Iteration:   916charge 0 multiplicity 1
 C        -2.893253        -1.410582         1.667988
 C        -1.693354        -0.538699         1.184451
 C        -1.958519         0.419752        -0.161774
 C        -1.635046        -0.869162        -1.031156
 C        -0.719031        -1.235919         0.080410
 O        -0.074677        -2.428734         0.333021
 C         0.233636         0.002026         0.209751
 O         1.435161        -0.054215         0.414925
 C        -0.689509         1.217329        -0.176908
 H        -3.546599        -1.874266         0.957500
 H        -2.411452        -2.080869         2.331648
 H        -3.673732        -0.840521         2.254928
 H        -1.213023         0.024811         1.987196
 H        -2.907375         0.879417        -0.175298
 H        -2.405259        -1.630725        -1.093368
 H        -1.279296        -0.637135        -2.037495
 H         0.975902        -2.457031         0.272138
 H        -0.700506         2.026602         0.584233
 H        -0.481274         1.412643        -1.181902
