19
Iteration:  2511
 C        -2.897253        -1.550182         1.476588
 C        -1.815621        -0.492935         1.128489
 C        -1.949101         0.399274        -0.103926
 C        -1.671345        -0.868311        -1.038638
 C        -0.703251        -1.114966         0.216249
 O        -0.095514        -2.340579         0.608120
 C         0.277028        -0.023142         0.077302
 O         1.487313        -0.131347         0.133025
 C        -0.602069         1.210072        -0.012241
 H        -2.998538        -1.788758         2.549061
 H        -4.006724        -1.246860         1.205311
 H        -2.734308        -2.536076         0.973987
 H        -1.594122         0.163801         1.945832
 H        -2.805749         1.039978        -0.178199
 H        -2.675533        -1.329088        -1.031920
 H        -0.943735        -0.784671        -1.931093
 H         0.889061        -2.329413         0.700418
 H        -0.776475         1.820145         0.899966
 H        -0.415677         1.936010        -0.780982
