19
Iteration:  1891
 C        -2.943785        -1.507746         1.549354
 C        -1.816047        -0.575022         1.070619
 C        -2.031527         0.428359        -0.050143
 C        -1.567347        -0.747794        -1.055072
 C        -0.657047        -1.172649         0.210000
 O        -0.067622        -2.366291         0.579073
 C         0.299046        -0.005829         0.126895
 O         1.493365        -0.176755         0.128517
 C        -0.688487         1.197620        -0.040255
 H        -3.489749        -1.628846         0.662142
 H        -2.612564        -2.457477         2.132977
 H        -3.641917        -0.876278         2.140634
 H        -1.556971        -0.160762         2.021923
 H        -2.961240         0.974973         0.018141
 H        -2.281218        -1.575354        -1.302110
 H        -1.203187        -0.367336        -2.041624
 H         0.887740        -2.159752         0.808772
 H        -0.695228         1.957930         0.690907
 H        -0.526959         1.686149        -1.051965
