19
Iteration:  2096charge 0 multiplicity 1
 C        -2.929746        -1.347468         1.518524
 C        -1.689171        -0.543247         1.211996
 C        -1.950549         0.301110        -0.038966
 C        -1.735252        -0.916740        -0.910301
 C        -0.605645        -1.193205         0.237301
 O        -0.137878        -2.469079         0.217732
 C         0.328771         0.072761         0.050080
 O         1.504843        -0.001769         0.340360
 C        -0.714783         1.218651        -0.100072
 H        -3.593314        -1.444737         0.685059
 H        -2.660094        -2.469276         1.737927
 H        -3.458131        -1.006194         2.373123
 H        -1.278549         0.030732         2.002732
 H        -2.896710         0.792234         0.067881
 H        -2.631496        -1.549743        -0.968486
 H        -1.284719        -0.758385        -1.891292
 H         0.352073        -2.674536         0.996818
 H        -0.591331         2.025457         0.699869
 H        -0.402698         1.600483        -1.123589
