19
Iteration:   672
 C        -2.865879        -1.476221         1.629791
 C        -1.755532        -0.462967         1.147408
 C        -1.973929         0.374057        -0.095250
 C        -1.665541        -0.848269        -0.975232
 C        -0.686978        -1.136775         0.146769
 O        -0.141129        -2.457185         0.312249
 C         0.278046         0.025677         0.172312
 O         1.464311        -0.056610         0.401533
 C        -0.640679         1.140786        -0.221814
 H        -3.374734        -1.984092         0.757630
 H        -2.355020        -2.269756         2.162149
 H        -3.595606        -1.051570         2.368090
 H        -1.281197        -0.005780         2.021675
 H        -2.901468         0.937396        -0.270081
 H        -2.518160        -1.513631        -0.991109
 H        -1.264603        -0.483298        -1.917512
 H         0.743031        -2.271056         0.542800
 H        -0.643718         1.973405         0.562714
 H        -0.390310         1.605070        -1.166538
