19
Iteration:  1023charge 0 multiplicity 1
 C        -2.879731        -1.601487         1.478858
 C        -1.791325        -0.563493         1.136431
 C        -1.974266         0.486229        -0.049003
 C        -1.644474        -0.760638        -0.958020
 C        -0.726472        -1.215509         0.252066
 O        -0.209095        -2.485830         0.502298
 C         0.326809        -0.020131         0.135766
 O         1.550311         0.041304         0.175694
 C        -0.653456         1.197746        -0.150490
 H        -3.064388        -2.235306         0.573289
 H        -2.556197        -2.184984         2.312788
 H        -3.604733        -0.957909         1.875531
 H        -1.328547        -0.141964         2.073591
 H        -2.887973         1.036945        -0.007310
 H        -2.529987        -1.390247        -1.218406
 H        -1.011443        -0.501966        -1.864920
 H         0.589936        -2.419683         0.992292
 H        -0.606707         2.098298         0.493927
 H        -0.481650         1.648996        -1.088835
