19
Iteration:  1115
 C        -3.095268        -1.389199         1.468380
 C        -1.776890        -0.578934         1.179057
 C        -1.937819         0.324658         0.030561
 C        -1.647553        -0.840993        -0.942087
 C        -0.623207        -1.210156         0.233694
 O        -0.016481        -2.461263         0.382227
 C         0.308134         0.013431         0.075178
 O         1.510952         0.003028         0.200156
 C        -0.679822         1.225641        -0.094942
 H        -3.472722        -1.877316         0.600002
 H        -3.056527        -2.304681         2.070328
 H        -3.777974        -0.741791         2.077510
 H        -1.378633        -0.200915         2.159411
 H        -2.916446         0.885194        -0.046483
 H        -2.478374        -1.551680        -0.950730
 H        -1.339068        -0.621506        -1.959908
 H         0.807898        -2.369517         0.817211
 H        -0.556219         1.958580         0.719243
 H        -0.441359         1.734430        -1.069038
