19
Iteration:  3914charge 0 multiplicity 1
 C        -3.115430        -1.475251         1.476545
 C        -1.826315        -0.504450         1.110413
 C        -1.976436         0.416983        -0.073206
 C        -1.465137        -0.938583        -1.000464
 C        -0.640249        -1.206739         0.282192
 O        -0.040797        -2.372847         0.585345
 C         0.248977        -0.002949         0.170315
 O         1.471461        -0.023868         0.076612
 C        -0.665276         1.163534        -0.055465
 H        -3.156358        -2.261415         0.645221
 H        -3.007119        -1.898555         2.521236
 H        -3.993969        -0.804823         1.621839
 H        -1.591417        -0.088099         2.135035
 H        -2.833298         0.975914        -0.401679
 H        -2.194199        -1.652027        -1.213271
 H        -0.942902        -0.711448        -1.923660
 H         0.917967        -2.096324         0.582331
 H        -0.601668         1.909758         0.743685
 H        -0.343260         1.656429        -1.085478
