19
Iteration:   908charge 0 multiplicity 1
 C        -2.847157        -1.374985         1.604789
 C        -1.727791        -0.508294         1.146118
 C        -2.012918         0.412674        -0.102957
 C        -1.655925        -0.874316        -1.024958
 C        -0.672818        -1.205137         0.119020
 O        -0.113543        -2.495275         0.375813
 C         0.255477        -0.022307         0.150917
 O         1.450523        -0.003647         0.420660
 C        -0.679199         1.188695        -0.151002
 H        -3.306757        -1.935726         0.809413
 H        -2.393997        -2.208262         2.231314
 H        -3.636511        -1.076607         2.279214
 H        -1.234219        -0.221795         2.072420
 H        -3.030098         0.819844        -0.289343
 H        -2.562612        -1.375977        -0.896648
 H        -1.250992        -0.683292        -2.002339
 H         0.861419        -2.310964         0.136645
 H        -0.442669         2.117505         0.360438
 H        -0.448799         1.575384        -1.204370
