19
Iteration:   195charge 0 multiplicity 1
 C        -2.869970        -1.627113         1.659327
 C        -1.826482        -0.474077         1.155758
 C        -2.034783         0.441400        -0.185126
 C        -1.558782        -0.691847        -1.128749
 C        -0.684351        -1.134299         0.271066
 O        -0.221803        -2.453165         0.514136
 C         0.300238        -0.043215         0.179515
 O         1.537152        -0.020640         0.170123
 C        -0.625387         1.119528        -0.081682
 H        -3.439195        -2.114360         0.863180
 H        -2.330069        -2.343010         2.248904
 H        -3.671544        -1.267481         2.325706
 H        -1.697204         0.107863         2.051587
 H        -2.838231         1.133925        -0.236577
 H        -2.227624        -1.396404        -1.373698
 H        -0.947807        -0.480286        -1.982695
 H         0.555334        -2.424942        -0.005842
 H        -0.678585         1.746643         0.843018
 H        -0.313312         1.648717        -0.983054
