19
Iteration:  2528charge 0 multiplicity 1
 C        -2.859301        -1.499302         1.440687
 C        -1.801368        -0.511070         1.120001
 C        -2.019404         0.429822        -0.182801
 C        -1.704326        -0.865139        -0.995797
 C        -0.707240        -1.195391         0.218213
 O        -0.100884        -2.332883         0.587880
 C         0.294221         0.023545         0.077487
 O         1.517569        -0.181372         0.225910
 C        -0.661164         1.235416        -0.022476
 H        -2.468438        -1.920232         2.440237
 H        -3.804301        -1.073341         1.501785
 H        -2.876398        -2.330032         0.776516
 H        -1.347323        -0.078033         2.079319
 H        -2.954724         1.022425        -0.472878
 H        -2.425188        -1.684301        -0.827423
 H        -1.444203        -0.693354        -1.987170
 H         0.917420        -1.968194         0.628180
 H        -0.461965         1.707325         0.970583
 H        -0.436190         1.942757        -0.855170
