19
Iteration:  1353charge 0 multiplicity 1
 C        -2.920433        -1.570074         1.374908
 C        -1.792017        -0.529545         1.169235
 C        -2.025268         0.438978         0.001755
 C        -1.580418        -0.757527        -0.981793
 C        -0.725483        -1.148113         0.319346
 O        -0.095075        -2.349264         0.587861
 C         0.242615        -0.018078         0.114787
 O         1.477403        -0.170255         0.122031
 C        -0.626993         1.182170        -0.141352
 H        -3.171350        -2.069677         0.362266
 H        -2.462605        -2.222944         2.065340
 H        -3.696301        -1.122488         1.927074
 H        -1.420686        -0.001577         2.031362
 H        -2.966664         1.014787         0.107664
 H        -2.415320        -1.425333        -1.053661
 H        -0.955047        -0.416651        -1.808050
 H         0.862238        -2.128071         0.399467
 H        -0.564467         2.033423         0.569957
 H        -0.330219         1.586256        -1.100212
