19
Iteration:  2351
 C        -2.822876        -1.500872         1.549043
 C        -1.653065        -0.530911         1.129195
 C        -1.990633         0.439580        -0.052770
 C        -1.764789        -0.823390        -0.957637
 C        -0.671982        -1.158382         0.073117
 O        -0.268556        -2.473645         0.340446
 C         0.331613        -0.018281         0.064151
 O         1.478536         0.046283         0.437205
 C        -0.590444         1.130180        -0.148288
 H        -3.473186        -1.784163         0.720881
 H        -2.336344        -2.443739         2.065457
 H        -3.322649        -0.856570         2.364893
 H        -1.276825        -0.047925         1.978103
 H        -3.071148         0.614016         0.064191
 H        -2.580174        -1.529727        -0.794456
 H        -1.426997        -0.715132        -1.987420
 H         0.701202        -2.287389         0.742905
 H        -0.369908         1.726920         0.742244
 H        -0.396203         1.822230        -1.087040
