19
Iteration:   871charge 0 multiplicity 1
 C        -2.848136        -1.598407         1.536821
 C        -1.774890        -0.566361         1.185321
 C        -1.983910         0.411469        -0.037395
 C        -1.628759        -0.821845        -0.970037
 C        -0.693260        -1.164224         0.168630
 O        -0.299663        -2.429596         0.459832
 C         0.325871         0.049352         0.102273
 O         1.552358         0.040010         0.294418
 C        -0.626974         1.223878        -0.196198
 H        -3.256569        -1.922724         0.543647
 H        -2.300428        -2.317385         2.067177
 H        -3.696234        -1.111905         2.009629
 H        -1.149179        -0.136091         1.960740
 H        -2.895001         0.903842        -0.333302
 H        -2.522264        -1.496301        -1.018500
 H        -1.290139        -0.866603        -2.007450
 H         0.597031        -2.452767         0.992302
 H        -0.468547         1.965113         0.598069
 H        -0.440042         1.382109        -1.211239
