19
Iteration:  4721
 C        -3.036739        -1.429303         1.525599
 C        -1.890273        -0.505814         1.046911
 C        -2.001539         0.349047        -0.143642
 C        -1.572937        -0.940514        -0.919953
 C        -0.616716        -1.244737         0.258310
 O         0.001560        -2.426898         0.549704
 C         0.273321         0.039158         0.106500
 O         1.495086        -0.021299         0.107298
 C        -0.642304         1.224641         0.028015
 H        -3.589202        -2.012491         0.662894
 H        -2.853326        -1.978973         2.436580
 H        -3.852495        -0.722140         1.742994
 H        -1.589757         0.145578         1.987453
 H        -2.862609         0.880670        -0.455451
 H        -2.517988        -1.492112        -1.055197
 H        -1.033065        -1.002584        -2.060579
 H         0.994536        -2.128350         0.707499
 H        -0.562599         1.962713         0.815837
 H        -0.363228         1.718433        -0.975761
