19
Iteration:  3071charge 0 multiplicity 1
 C        -3.007214        -1.414887         1.481801
 C        -1.813358        -0.510926         1.133583
 C        -1.979832         0.322772        -0.135986
 C        -1.497594        -0.893338        -0.995040
 C        -0.666267        -1.184415         0.243136
 O         0.054286        -2.347494         0.642471
 C         0.209183         0.015043         0.122689
 O         1.427217        -0.136893         0.182709
 C        -0.736180         1.208941        -0.140008
 H        -3.890707        -1.240352         0.810697
 H        -2.811245        -2.553663         1.269566
 H        -3.338229        -1.231317         2.521808
 H        -1.545867         0.121086         1.985464
 H        -2.994340         0.743088        -0.387851
 H        -2.282893        -1.585571        -1.169713
 H        -1.006928        -0.503339        -1.898003
 H         1.011442        -2.035551         0.860564
 H        -0.383021         1.955140         0.614396
 H        -0.698984         1.671412        -1.187514
