19
Iteration:  2678charge 0 multiplicity 1
 C        -2.881599        -1.556294         1.546998
 C        -1.831852        -0.457169         1.089284
 C        -2.013483         0.435650        -0.188848
 C        -1.615098        -0.899237        -0.991434
 C        -0.715381        -1.158129         0.186399
 O        -0.071473        -2.326910         0.600282
 C         0.294812        -0.029483         0.156288
 O         1.491087        -0.098618         0.321248
 C        -0.677913         1.176635        -0.204159
 H        -3.412315        -2.060148         0.808304
 H        -2.286284        -2.385823         2.070609
 H        -3.601868        -1.058603         2.246783
 H        -1.540248         0.074396         1.943052
 H        -2.957657         0.955779        -0.469373
 H        -2.488135        -1.544880        -1.266799
 H        -1.062006        -0.748146        -1.953110
 H         0.932503        -2.183497         0.647212
 H        -0.657776         2.057853         0.402038
 H        -0.489321         1.671674        -1.160624
