19
Iteration:  1878
 C        -2.888465        -1.508275         1.381462
 C        -1.796577        -0.511982         1.264144
 C        -1.975465         0.408973        -0.001739
 C        -1.651281        -0.828143        -1.003250
 C        -0.709729        -1.132804         0.274946
 O        -0.100105        -2.357760         0.512084
 C         0.275972        -0.004560         0.114220
 O         1.495218        -0.156831         0.180980
 C        -0.672522         1.214361        -0.115246
 H        -3.400841        -1.965583         0.521511
 H        -2.473051        -2.452862         1.861012
 H        -3.628409        -1.155928         2.085140
 H        -1.401441        -0.005953         2.102934
 H        -2.803332         0.995667        -0.348531
 H        -2.519866        -1.467142        -1.205233
 H        -0.981417        -0.694670        -1.842011
 H         0.830751        -2.154443         0.500978
 H        -0.465689         2.031435         0.543383
 H        -0.598388         1.565219        -1.137817
