19
Iteration:  2296charge 0 multiplicity 1
 C        -2.908954        -1.445840         1.761856
 C        -1.839711        -0.520598         1.203516
 C        -1.955360         0.450538        -0.154833
 C        -1.662667        -0.834363        -0.999934
 C        -0.698323        -1.129869         0.178603
 O        -0.100083        -2.390463         0.156677
 C         0.275563        -0.025959         0.152679
 O         1.475435        -0.118445         0.319321
 C        -0.603293         1.123364        -0.048625
 H        -3.092705        -2.398971         1.278733
 H        -2.593329        -1.845416         2.814332
 H        -3.971747        -1.042841         1.868330
 H        -1.501378         0.030859         2.049410
 H        -2.882531         1.018590        -0.359266
 H        -2.168056        -1.786110        -1.111954
 H        -1.087903        -0.601461        -1.920941
 H         0.915932        -2.110831         0.317925
 H        -0.590190         1.998196         0.594391
 H        -0.457861         1.585339        -1.133756
