19
Iteration:  3984charge 0 multiplicity 1
 C        -2.797465        -1.494143         1.709342
 C        -1.829000        -0.485526         1.114833
 C        -2.006869         0.423039        -0.252545
 C        -1.596782        -0.829714        -1.093964
 C        -0.675088        -1.145876         0.206703
 O        -0.136965        -2.421716         0.448675
 C         0.286632        -0.062215         0.189076
 O         1.464751        -0.029749         0.503010
 C        -0.744328         1.153475        -0.333737
 H        -3.344653        -1.805921         0.855669
 H        -2.332546        -2.341961         2.164408
 H        -3.390506        -0.965195         2.452562
 H        -1.395935         0.048797         1.987686
 H        -2.832104         1.176103        -0.281909
 H        -2.311810        -1.711426        -1.344479
 H        -0.891876        -0.692369        -1.939603
 H         0.872935        -2.580830         0.489750
 H        -0.724390         2.030147         0.342002
 H        -0.679483         1.472114        -1.283444
