19
Iteration:  3589
 C        -2.987061        -1.439800         1.314418
 C        -1.855300        -0.521931         1.139623
 C        -1.952945         0.355062        -0.071306
 C        -1.515888        -0.904205        -0.969213
 C        -0.706402        -1.186394         0.376381
 O        -0.032482        -2.380908         0.728684
 C         0.253020         0.018569         0.142381
 O         1.465100        -0.058826        -0.002696
 C        -0.670538         1.191913        -0.105199
 H        -3.563890        -1.616589         0.264278
 H        -2.588166        -2.420097         1.577418
 H        -3.731842        -1.182225         2.109017
 H        -1.537108        -0.097645         2.195265
 H        -2.818610         1.014053        -0.015949
 H        -2.439514        -1.435617        -1.134774
 H        -1.060629        -0.684414        -2.020828
 H         0.932053        -2.197589         0.852937
 H        -0.637389         1.878441         0.822817
 H        -0.388785         1.731029        -1.049342
