19
Iteration:  1969
 C        -3.073708        -1.477719         1.423474
 C        -1.761068        -0.575437         1.293664
 C        -2.029844         0.458721         0.086331
 C        -1.608138        -0.855720        -0.920603
 C        -0.651904        -1.177286         0.219286
 O        -0.121200        -2.441531         0.404823
 C         0.331618        -0.010117         0.063240
 O         1.551083         0.005566         0.135691
 C        -0.614842         1.223905        -0.135868
 H        -3.159632        -2.226484         0.683138
 H        -2.842012        -2.125259         2.379457
 H        -4.110507        -0.972616         1.507729
 H        -1.330477        -0.248970         2.292607
 H        -3.066748         0.850248         0.022964
 H        -2.308563        -1.670939        -1.165968
 H        -1.020884        -0.749220        -1.900574
 H         0.658930        -2.306340         0.957905
 H        -0.371352         1.965795         0.578817
 H        -0.563676         1.541828        -1.223438
