19
Iteration:  2181
 C        -2.826176        -1.524280         1.545874
 C        -1.798250        -0.470817         1.151335
 C        -1.929498         0.404387        -0.099477
 C        -1.566632        -0.828166        -1.012787
 C        -0.695948        -1.167594         0.239707
 O        -0.197196        -2.405521         0.488287
 C         0.265242        -0.014914         0.164790
 O         1.473603        -0.103987         0.033404
 C        -0.715033         1.247083         0.027446
 H        -3.729299        -1.373353         0.800264
 H        -2.356441        -2.470460         1.336222
 H        -3.230800        -1.396838         2.521708
 H        -1.358899         0.028920         2.038132
 H        -2.845932         0.995483        -0.205172
 H        -2.369521        -1.590671        -1.117217
 H        -1.004966        -0.770269        -1.950200
 H         0.650611        -2.564705         0.797301
 H        -0.608264         1.703951         1.062561
 H        -0.512441         1.956124        -0.701603
