19
Iteration:  2709charge 0 multiplicity 1
 C        -2.976353        -1.443748         1.398923
 C        -1.776591        -0.505885         1.080435
 C        -1.979024         0.357457        -0.191174
 C        -1.551839        -0.972795        -0.927136
 C        -0.625328        -1.172176         0.276339
 O        -0.120932        -2.380068         0.664371
 C         0.301641         0.039177         0.147348
 O         1.500741         0.009969         0.103722
 C        -0.702493         1.153025        -0.076003
 H        -3.811919        -1.315963         0.783046
 H        -2.854749        -2.592546         1.635555
 H        -3.382657        -1.084538         2.417684
 H        -1.570204         0.131373         2.017439
 H        -2.948119         0.723722        -0.440821
 H        -2.441633        -1.625585        -1.105906
 H        -0.829855        -0.830298        -1.840999
 H         0.769837        -2.455495         0.803512
 H        -0.831072         1.676502         0.906097
 H        -0.586272         1.949850        -0.832841
