19
Iteration:   957charge 0 multiplicity 1
 C        -2.972032        -1.343259         1.773206
 C        -1.842242        -0.464863         1.127196
 C        -1.973100         0.360116        -0.130239
 C        -1.651488        -0.885949        -1.057523
 C        -0.606094        -1.226290         0.062265
 O         0.075582        -2.435030         0.256153
 C         0.246732        -0.037491         0.171835
 O         1.436300        -0.107646         0.367516
 C        -0.710458         1.171123        -0.085315
 H        -3.646243        -1.895655         0.979969
 H        -2.659950        -2.008392         2.557578
 H        -3.765537        -0.653430         2.265553
 H        -1.465280         0.102647         2.013375
 H        -2.785949         1.029127        -0.302271
 H        -2.493632        -1.663124        -1.129096
 H        -1.062505        -0.598180        -1.961950
 H         0.937484        -2.061120         0.582417
 H        -0.871911         1.901940         0.748747
 H        -0.401912         1.752531        -0.938558
