19
Iteration:  3242
 C        -3.034559        -1.337662         1.543073
 C        -1.728923        -0.631921         1.174272
 C        -1.994287         0.291062        -0.063516
 C        -1.611799        -0.940227        -1.024576
 C        -0.665803        -1.246467         0.118461
 O        -0.077974        -2.386091         0.528337
 C         0.279620         0.012564         0.085095
 O         1.511961         0.059313         0.287455
 C        -0.656466         1.207806        -0.185270
 H        -3.386698        -1.974593         0.834435
 H        -2.937164        -2.008420         2.455582
 H        -3.881323        -0.647892         1.805091
 H        -1.457578        -0.111224         2.168796
 H        -2.970804         0.872316        -0.000702
 H        -2.308775        -1.773490        -1.188407
 H        -1.165795        -0.673375        -2.049487
 H         0.810960        -2.273249         0.874880
 H        -0.331857         1.991500         0.548761
 H        -0.499416         1.678196        -1.134124
