19
Iteration:  1330
 C        -3.030287        -1.574280         1.600763
 C        -1.926995        -0.605075         1.194957
 C        -1.973336         0.424670        -0.137849
 C        -1.540173        -0.749585        -1.103056
 C        -0.673937        -1.198512         0.228544
 O         0.008662        -2.338738         0.535355
 C         0.253126         0.015519         0.138051
 O         1.484144        -0.210948         0.133097
 C        -0.648796         1.263269        -0.079921
 H        -3.518906        -2.117580         0.686564
 H        -2.716496        -2.158527         2.424448
 H        -3.691558        -0.917093         2.095826
 H        -1.528076        -0.137449         2.105455
 H        -2.860534         1.065000        -0.320816
 H        -2.441385        -1.260069        -1.089171
 H        -1.012605        -0.291858        -1.936848
 H         1.005953        -2.008977         0.587464
 H        -0.349931         1.977369         0.752083
 H        -0.421158         1.835583        -0.962534
