19
Iteration:   698charge 0 multiplicity 1
 C        -2.775000        -1.541692         1.685636
 C        -1.717955        -0.555308         1.034277
 C        -2.003817         0.413923        -0.123387
 C        -1.596071        -0.779336        -1.185475
 C        -0.723577        -1.156683         0.108870
 O        -0.231106        -2.487143         0.540066
 C         0.278243         0.016228         0.128512
 O         1.458804        -0.075302         0.356970
 C        -0.672881         1.249705        -0.116143
 H        -3.372845        -2.177773         0.945162
 H        -2.241247        -2.123776         2.532643
 H        -3.371073        -0.864669         2.335898
 H        -1.201843        -0.146104         1.986472
 H        -2.986713         0.897391        -0.254736
 H        -2.480018        -1.510673        -1.198086
 H        -1.167141        -0.307236        -2.080446
 H         0.698631        -2.293573         0.350827
 H        -0.669554         1.969439         0.827700
 H        -0.459188         1.901878        -1.046919
