19
Iteration:  2543charge 0 multiplicity 1
 C        -2.892815        -1.529190         1.532963
 C        -1.791912        -0.485635         1.102327
 C        -1.992599         0.418120        -0.120192
 C        -1.652577        -0.828171        -0.984996
 C        -0.642180        -1.100264         0.193401
 O        -0.069405        -2.372821         0.534320
 C         0.258295        -0.017555         0.142569
 O         1.452577        -0.146631         0.271916
 C        -0.652941         1.174331        -0.145766
 H        -2.571557        -2.253981         2.324194
 H        -3.741129        -0.899854         1.931817
 H        -3.264428        -2.089731         0.650754
 H        -1.473904         0.055728         1.935248
 H        -2.905343         0.998537        -0.183661
 H        -2.501629        -1.480079        -1.213787
 H        -1.168539        -0.866292        -2.013643
 H         0.862274        -2.248533         0.497413
 H        -0.748706         1.912247         0.710058
 H        -0.350927         1.715554        -1.038988
