19
Iteration:  1958
 C        -3.066247        -1.477132         1.465251
 C        -1.728222        -0.543098         1.207057
 C        -1.948273         0.356921         0.000839
 C        -1.558845        -0.848448        -0.892631
 C        -0.665300        -1.174017         0.337651
 O        -0.134687        -2.477511         0.363492
 C         0.314389         0.055984         0.127527
 O         1.539153        -0.016897         0.091578
 C        -0.710270         1.202900        -0.088899
 H        -3.199307        -2.047528         0.595638
 H        -3.120688        -2.170445         2.410718
 H        -3.940328        -0.744159         1.535246
 H        -1.423637         0.023554         2.122636
 H        -2.839310         0.981871        -0.137563
 H        -2.367577        -1.590826        -0.953039
 H        -1.038766        -0.603361        -1.870359
 H         0.837753        -2.463555         0.694364
 H        -0.590971         1.978936         0.630517
 H        -0.566272         1.778976        -1.055798
