19
Iteration:  4263charge 0 multiplicity 1
 C        -2.794648        -1.446890         1.657830
 C        -1.726907        -0.416843         1.110409
 C        -2.011237         0.371809        -0.188858
 C        -1.661733        -0.967592        -1.082764
 C        -0.752009        -1.170846         0.105754
 O        -0.093530        -2.409622         0.402452
 C         0.265417         0.014995         0.118182
 O         1.387672        -0.029788         0.598508
 C        -0.633307         1.155141        -0.243601
 H        -3.129799        -2.253963         0.858418
 H        -2.313427        -2.068537         2.391883
 H        -3.646797        -1.019828         2.192648
 H        -1.378391         0.074281         2.099017
 H        -2.774993         1.047735        -0.466739
 H        -2.662364        -1.562857        -1.190105
 H        -1.022833        -0.773432        -2.075593
 H         0.839008        -2.256984         0.543064
 H        -0.641437         2.008067         0.366504
 H        -0.342915         1.473233        -1.310789
