19
Iteration:  1493
 C        -2.862021        -1.499984         1.540349
 C        -1.710506        -0.538598         1.207626
 C        -1.995599         0.437118         0.018703
 C        -1.696270        -0.769474        -0.947486
 C        -0.620155        -1.186159         0.153558
 O        -0.109141        -2.422847         0.314622
 C         0.265809        -0.020023         0.111812
 O         1.397035        -0.078182         0.549161
 C        -0.643813         1.185062        -0.408521
 H        -3.043934        -2.249217         0.633699
 H        -2.602676        -2.010565         2.443574
 H        -3.713867        -0.892765         1.785182
 H        -1.302618        -0.109152         2.203340
 H        -2.855306         1.104033        -0.100065
 H        -2.572762        -1.376333        -0.754879
 H        -1.301742        -0.728962        -1.964973
 H         0.826025        -2.291844         0.337021
 H        -0.337000         2.164350         0.117512
 H        -0.688978         1.223962        -1.487017
