19
Iteration:  3453
 C        -2.766652        -1.439554         1.623028
 C        -1.761833        -0.373954         1.187355
 C        -1.953162         0.364013        -0.208312
 C        -1.689362        -0.890633        -1.019510
 C        -0.646016        -1.213455         0.107231
 O        -0.194811        -2.456299         0.385805
 C         0.239606        -0.003860         0.167727
 O         1.411632         0.034182         0.578743
 C        -0.657504         1.084647        -0.305370
 H        -2.415352        -2.329648         1.162199
 H        -2.508451        -1.750897         2.738477
 H        -3.870173        -1.319352         1.481974
 H        -1.347370         0.357466         1.964401
 H        -2.826460         0.967076        -0.448071
 H        -2.502065        -1.714364        -1.115029
 H        -1.180861        -0.789367        -2.049552
 H         0.799171        -2.279309         0.357464
 H        -0.508512         1.929827         0.327548
 H        -0.433880         1.471551        -1.329175
