19
Iteration:  1863charge 0 multiplicity 1
 C        -2.920763        -1.612210         1.427999
 C        -1.769324        -0.458730         1.187342
 C        -1.951688         0.472166        -0.095986
 C        -1.651905        -0.840439        -0.806467
 C        -0.698336        -1.152573         0.316325
 O        -0.138670        -2.381359         0.437390
 C         0.237647         0.000922         0.113808
 O         1.457017        -0.084534         0.237923
 C        -0.552681         1.185157        -0.241172
 H        -3.153866        -1.793595         0.365419
 H        -2.464084        -2.485377         1.760061
 H        -3.844536        -1.347840         1.983034
 H        -1.481411        -0.075204         2.240102
 H        -2.970524         0.945682         0.008515
 H        -2.408142        -1.590822        -0.739684
 H        -1.340999        -0.620561        -1.832424
 H         0.849593        -2.300243         0.246606
 H        -0.499130         1.979316         0.618299
 H        -0.232953         1.727068        -1.135621
