19
Iteration:   439charge 0 multiplicity 1
 C        -3.056623        -1.322721         1.635856
 C        -1.832827        -0.577190         1.191301
 C        -1.963700         0.303254        -0.099650
 C        -1.540357        -0.849364        -1.049503
 C        -0.588160        -1.175553         0.174668
 O        -0.051470        -2.478440         0.364495
 C         0.287259         0.004900         0.102075
 O         1.482316        -0.025625         0.277847
 C        -0.710056         1.178461        -0.042769
 H        -3.692110        -1.717967         0.836951
 H        -3.019278        -2.251946         2.267919
 H        -3.640705        -0.616117         2.241665
 H        -1.400277        -0.001360         2.006635
 H        -2.903866         0.912706        -0.339021
 H        -2.236878        -1.682420        -1.343096
 H        -1.079562        -0.434159        -1.861018
 H         0.949878        -2.320879         0.467832
 H        -0.660155         1.953135         0.728889
 H        -0.488042         1.590676        -1.089794
