19
Iteration:  1888
 C        -2.914233        -1.509008         1.526828
 C        -1.824603        -0.567011         1.109053
 C        -2.020519         0.434814        -0.023026
 C        -1.588542        -0.773348        -1.062568
 C        -0.670126        -1.169575         0.222043
 O        -0.067811        -2.358260         0.567043
 C         0.294584        -0.004742         0.121916
 O         1.497638        -0.178268         0.140002
 C        -0.682811         1.194430        -0.056919
 H        -3.445877        -1.652392         0.515695
 H        -2.609973        -2.427249         2.047800
 H        -3.560433        -0.892197         2.105448
 H        -1.632500        -0.135440         2.088814
 H        -2.945258         1.025983        -0.087164
 H        -2.332299        -1.544824        -1.276761
 H        -1.125173        -0.431658        -1.978986
 H         0.831628        -2.219700         0.757696
 H        -0.700660         2.058015         0.619589
 H        -0.612976         1.644849        -1.012666
