19
Iteration:  1812charge 0 multiplicity 1
 C        -2.852039        -1.333356         1.700827
 C        -1.678109        -0.568124         1.110161
 C        -2.018943         0.354287        -0.202736
 C        -1.555250        -0.803823        -1.130317
 C        -0.628922        -1.191257         0.139058
 O        -0.158269        -2.508755         0.339648
 C         0.234821         0.015791         0.115936
 O         1.402879        -0.025636         0.387500
 C        -0.742241         1.152159        -0.014084
 H        -3.679845        -1.885793         1.027669
 H        -2.510887        -2.186872         2.395351
 H        -3.183274        -0.480546         2.252998
 H        -1.204952        -0.200346         1.982768
 H        -3.011128         0.818665        -0.261392
 H        -2.317504        -1.564362        -1.271137
 H        -1.026046        -0.475857        -2.018667
 H         0.751194        -2.426734         0.785784
 H        -0.431037         1.738138         0.832370
 H        -0.552931         1.815446        -0.853540
