19
Iteration:  2478charge 0 multiplicity 1
 C        -3.064356        -1.498885         1.467410
 C        -1.837457        -0.577272         1.231799
 C        -1.993322         0.342610        -0.025383
 C        -1.475579        -0.751382        -0.959739
 C        -0.611622        -1.200109         0.359861
 O        -0.158046        -2.440339         0.505609
 C         0.325915         0.059858         0.179135
 O         1.522393        -0.059236         0.009562
 C        -0.658305         1.223811        -0.113150
 H        -3.433740        -1.189440         2.470017
 H        -3.841066        -1.404858         0.626807
 H        -2.734364        -2.547962         1.570360
 H        -1.702848         0.097444         2.094501
 H        -2.895834         0.913185        -0.169928
 H        -2.261799        -1.483573        -1.252251
 H        -0.741929        -0.704807        -1.861823
 H         0.777818        -2.441653         0.317786
 H        -0.727943         2.114033         0.547388
 H        -0.623046         1.569012        -1.123582
