19
Iteration:   379
 C        -2.742322        -1.563980         1.591923
 C        -1.799822        -0.468425         1.156286
 C        -1.985790         0.440104        -0.115652
 C        -1.589942        -0.804183        -1.007855
 C        -0.725024        -1.117817         0.221257
 O        -0.273794        -2.441472         0.382639
 C         0.320191        -0.021032         0.107076
 O         1.472059        -0.083757         0.472958
 C        -0.711421         1.176751        -0.270139
 H        -3.004983        -2.080713         0.666804
 H        -2.012636        -2.060626         2.199683
 H        -3.663791        -1.315248         2.178717
 H        -1.335278         0.027273         2.050678
 H        -2.845825         1.046671        -0.202978
 H        -2.334484        -1.534887        -1.185165
 H        -1.012252        -0.522040        -2.015507
 H         0.641550        -2.256040         0.414097
 H        -0.445132         2.023818         0.413630
 H        -0.496030         1.490512        -1.258272
