19
Iteration:  1623
 C        -3.104311        -1.501375         1.358038
 C        -1.844016        -0.592732         1.192710
 C        -1.960318         0.394184         0.073041
 C        -1.680707        -0.878384        -0.932778
 C        -0.647794        -1.195212         0.158779
 O        -0.014738        -2.336840         0.633996
 C         0.316900         0.019392         0.026052
 O         1.519750        -0.055207         0.073665
 C        -0.577734         1.211165        -0.026170
 H        -3.630993        -1.628807         0.343385
 H        -2.971881        -2.440605         1.883253
 H        -3.608962        -0.711192         2.011041
 H        -1.555281        -0.302382         2.141052
 H        -2.910801         0.882119        -0.188701
 H        -2.494303        -1.580984        -0.873872
 H        -1.443570        -0.717461        -1.943708
 H         0.841423        -2.227569         0.241475
 H        -0.190221         1.846651         0.857385
 H        -0.269321         1.782002        -0.848719
