19
Iteration:  3681charge 0 multiplicity 1
 C        -2.930803        -1.359868         1.592564
 C        -1.797760        -0.528959         1.108607
 C        -2.030501         0.333546        -0.206444
 C        -1.573855        -0.922049        -0.962999
 C        -0.659071        -1.185778         0.208811
 O        -0.113407        -2.466926         0.415362
 C         0.346113         0.032494         0.049643
 O         1.557735         0.024290         0.343778
 C        -0.738858         1.161351        -0.096206
 H        -3.255506        -2.054704         0.789126
 H        -2.887772        -1.951284         2.605280
 H        -3.814650        -0.644176         1.719652
 H        -1.569886         0.128502         2.035258
 H        -3.052332         0.712179        -0.443937
 H        -2.490973        -1.617004        -0.996863
 H        -1.121410        -0.804245        -1.881874
 H         0.691218        -2.546730         0.985421
 H        -0.693475         1.853929         0.819464
 H        -0.425314         1.750145        -0.970795
