19
Iteration:  2159
 C        -2.929823        -1.553078         1.623252
 C        -1.754805        -0.597094         1.065163
 C        -2.045755         0.458222        -0.087590
 C        -1.641059        -0.755674        -1.021320
 C        -0.673696        -1.156794         0.151410
 O        -0.080644        -2.372565         0.552948
 C         0.296719         0.020088         0.072717
 O         1.487134        -0.179299         0.143113
 C        -0.652109         1.234800        -0.005953
 H        -3.900168        -1.392753         1.000727
 H        -2.647281        -2.568795         1.482630
 H        -3.114816        -1.312271         2.653910
 H        -1.493364        -0.038290         1.951824
 H        -3.005675         1.002507        -0.097470
 H        -2.540997        -1.340051        -1.270873
 H        -1.133338        -0.463288        -1.950293
 H         0.924303        -2.364317         0.552457
 H        -0.647230         1.865298         0.937284
 H        -0.272713         1.745620        -0.833937
