19
Iteration:  4667charge 0 multiplicity 1
 C        -3.015391        -1.480307         1.454670
 C        -1.846928        -0.572067         1.127726
 C        -1.952446         0.388417        -0.097356
 C        -1.609267        -0.824905        -0.972706
 C        -0.672892        -1.195296         0.421646
 O        -0.056045        -2.382930         0.586356
 C         0.304672         0.025254         0.162887
 O         1.523550        -0.086464         0.137249
 C        -0.685776         1.218630        -0.222219
 H        -3.414965        -2.214052         0.605690
 H        -2.653884        -2.042474         2.301035
 H        -3.904486        -0.940724         1.741972
 H        -1.373879        -0.244030         2.133147
 H        -2.875583         0.926951        -0.186209
 H        -2.319482        -1.544972        -1.269785
 H        -1.043834        -0.634726        -1.960683
 H         0.866540        -2.086461         0.394383
 H        -0.687958         1.934136         0.535273
 H        -0.468760         1.752238        -1.222945
