19
Iteration:  4520charge 0 multiplicity 1
 C        -2.931971        -1.345178         1.614977
 C        -1.783415        -0.470092         1.184820
 C        -1.969785         0.348766        -0.122205
 C        -1.610108        -0.893879        -1.037807
 C        -0.609385        -1.220436         0.174698
 O        -0.038049        -2.422555         0.334411
 C         0.218938         0.001836         0.181686
 O         1.417833        -0.040656         0.399741
 C        -0.662546         1.107010        -0.210976
 H        -3.162042        -2.005223         0.918006
 H        -2.714607        -1.941105         2.520481
 H        -3.747047        -0.687731         1.900576
 H        -1.371675         0.094724         2.114934
 H        -2.931885         0.916743        -0.207252
 H        -2.536272        -1.564446        -1.042075
 H        -1.116218        -0.878993        -2.058336
 H         0.838599        -2.125092         0.671778
 H        -0.782861         2.064040         0.346750
 H        -0.506049         1.312572        -1.194460
