19
Iteration:  4641charge 0 multiplicity 1
 C        -2.878698        -1.480852         1.460872
 C        -1.910664        -0.441346         1.162813
 C        -1.967482         0.372370        -0.103720
 C        -1.603906        -0.898799        -0.969164
 C        -0.639592        -1.216776         0.171779
 O        -0.163828        -2.384799         0.584477
 C         0.282318        -0.006735         0.092228
 O         1.512080         0.006834         0.229206
 C        -0.633079         1.162771        -0.117910
 H        -3.313055        -2.028229         0.660802
 H        -2.428632        -2.209503         2.209767
 H        -3.769735        -0.972562         2.012201
 H        -1.409579        -0.130475         2.149132
 H        -2.881445         0.863725        -0.483039
 H        -2.469376        -1.715473        -1.041568
 H        -1.180985        -0.897510        -2.097497
 H         0.743488        -2.163496         0.667627
 H        -0.378360         1.945069         0.725418
 H        -0.408123         1.586400        -1.042727
