19
Iteration:   702charge 0 multiplicity 1
 C        -2.785487        -1.547015         1.693518
 C        -1.730179        -0.513882         1.020052
 C        -1.990230         0.391661        -0.113083
 C        -1.595593        -0.775933        -1.160113
 C        -0.702207        -1.204592         0.115435
 O        -0.244250        -2.469225         0.547115
 C         0.252675         0.054893         0.125998
 O         1.459078        -0.076061         0.344510
 C        -0.651382         1.239825        -0.123108
 H        -3.317854        -2.160895         1.045977
 H        -2.167150        -2.053610         2.419089
 H        -3.461897        -0.960064         2.295916
 H        -1.204478        -0.201617         1.912619
 H        -2.940102         0.878818        -0.231644
 H        -2.392168        -1.447359        -1.374241
 H        -1.216013        -0.278259        -2.077936
 H         0.698325        -2.286570         0.290135
 H        -0.720660         1.675659         0.817260
 H        -0.427825         1.928824        -0.927465
