19
Iteration:  4801
 C        -2.831787        -1.468982         1.573347
 C        -1.777619        -0.477208         1.122538
 C        -2.037870         0.385948        -0.184446
 C        -1.684438        -0.943220        -0.999293
 C        -0.712866        -1.183231         0.127760
 O        -0.141922        -2.328563         0.473271
 C         0.308682        -0.043711         0.039406
 O         1.462014        -0.005303         0.451744
 C        -0.600132         1.153396        -0.154856
 H        -3.336359        -2.042899         0.832400
 H        -2.282049        -2.303567         2.097971
 H        -3.565820        -1.092397         2.307854
 H        -1.381577         0.067957         2.095295
 H        -2.888581         1.101306        -0.473586
 H        -2.443492        -1.760888        -0.845355
 H        -1.249546        -0.883314        -2.081213
 H         0.752431        -2.163608         0.819123
 H        -0.456126         1.997778         0.486530
 H        -0.377284         1.463583        -1.191285
