19
Iteration:   524charge 0 multiplicity 1
 C        -2.878762        -1.535565         1.406858
 C        -1.734317        -0.575092         1.165199
 C        -1.841077         0.429848         0.025627
 C        -1.636424        -0.701113        -1.016489
 C        -0.684349        -1.228975         0.227690
 O        -0.222806        -2.419795         0.668578
 C         0.278061         0.014586         0.142855
 O         1.477021        -0.028243         0.106626
 C        -0.684977         1.197219        -0.137157
 H        -2.880447        -2.236235         0.519342
 H        -2.689448        -2.226412         2.259060
 H        -3.879018        -1.134486         1.368900
 H        -1.379947        -0.201991         2.136501
 H        -2.923638         0.725303        -0.031058
 H        -2.609132        -1.399992        -0.970446
 H        -1.282137        -0.529543        -2.037793
 H         0.655195        -2.571667         0.436358
 H        -0.377311         2.008582         0.445304
 H        -0.654132         1.642619        -1.157590
