19
Iteration:  2307charge 0 multiplicity 1
 C        -2.853427        -1.452613         1.740616
 C        -1.804627        -0.549578         1.169339
 C        -2.079404         0.391208        -0.085988
 C        -1.593237        -0.779211        -0.978577
 C        -0.681511        -1.204374         0.195173
 O        -0.151370        -2.461685         0.185296
 C         0.263490        -0.036518         0.168573
 O         1.464660        -0.066506         0.359599
 C        -0.626340         1.222867        -0.136713
 H        -2.942534        -2.229002         1.007635
 H        -2.529283        -1.767269         2.799614
 H        -3.734652        -0.745157         1.766548
 H        -1.312750         0.015724         1.914010
 H        -2.874126         1.115285        -0.338175
 H        -2.391757        -1.516948        -1.169463
 H        -1.098002        -0.521451        -1.941724
 H         0.883729        -2.425919         0.182624
 H        -0.340683         2.006432         0.567287
 H        -0.315339         1.525524        -1.236433
