19
Iteration:  1271
 C        -3.008285        -1.372079         1.510997
 C        -1.759428        -0.647667         1.212540
 C        -1.939852         0.373760        -0.027258
 C        -1.590591        -0.888974        -0.919151
 C        -0.630968        -1.212337         0.217078
 O        -0.141896        -2.534581         0.295216
 C         0.297567         0.029497         0.134449
 O         1.496643         0.112837         0.312431
 C        -0.684517         1.197417        -0.157641
 H        -3.484604        -1.896341         0.745973
 H        -2.730351        -2.094942         2.333531
 H        -3.723465        -0.555170         1.843638
 H        -1.247769        -0.164702         2.193223
 H        -2.773965         1.065257        -0.107199
 H        -2.296387        -1.617689        -1.343113
 H        -1.340003        -0.580702        -1.918561
 H         0.703272        -2.604554         0.646393
 H        -0.501243         1.981282         0.606922
 H        -0.621777         1.571693        -1.236597
