19
Iteration:  4979
 C        -2.908813        -1.496264         1.453070
 C        -1.861993        -0.478940         1.106300
 C        -2.013101         0.354441        -0.117748
 C        -1.545712        -0.848207        -0.945870
 C        -0.662394        -1.188154         0.262048
 O        -0.101200        -2.382483         0.655262
 C         0.284376         0.047098         0.111739
 O         1.482505        -0.106450         0.080793
 C        -0.667295         1.226536        -0.081024
 H        -3.279753        -1.760203         0.505619
 H        -2.632684        -2.418689         1.982000
 H        -3.723887        -0.960147         2.126208
 H        -1.513730         0.127195         2.008680
 H        -3.017387         0.623133        -0.525757
 H        -2.375501        -1.759612        -1.035895
 H        -0.910920        -0.616229        -1.794865
 H         0.934582        -2.232136         0.640288
 H        -0.619615         1.740420         0.943834
 H        -0.597626         1.795677        -0.949473
