19
Iteration:  1104charge 0 multiplicity 1
 C        -3.048703        -1.396366         1.511656
 C        -1.815105        -0.700243         1.248643
 C        -1.941702         0.363002        -0.053685
 C        -1.614925        -0.796829        -1.008255
 C        -0.733167        -1.236883         0.231863
 O        -0.012304        -2.424382         0.424715
 C         0.274799         0.042914         0.125403
 O         1.503356        -0.005607         0.154525
 C        -0.596586         1.172727        -0.077642
 H        -3.601782        -1.635113         0.618036
 H        -2.578058        -2.158646         2.199779
 H        -3.916357        -0.804597         1.944860
 H        -1.359160        -0.291825         2.205574
 H        -2.890225         0.982086        -0.194032
 H        -2.404667        -1.534930        -1.156152
 H        -1.142437        -0.535485        -1.968583
 H         0.786759        -2.033517         0.756342
 H        -0.474244         1.877893         0.765938
 H        -0.701327         1.742055        -1.039670
