19
Iteration:  2081charge 0 multiplicity 1
 C        -2.902948        -1.421461         1.666172
 C        -1.696299        -0.578409         1.182514
 C        -2.006197         0.391866        -0.048757
 C        -1.627210        -0.857281        -1.000776
 C        -0.701676        -1.198491         0.129114
 O        -0.165639        -2.481852         0.236922
 C         0.306206        -0.052145         0.127709
 O         1.485902         0.120158         0.339253
 C        -0.619321         1.112317        -0.139794
 H        -3.679250        -1.446569         0.797871
 H        -2.728639        -2.331322         2.106255
 H        -3.407265        -0.763761         2.435454
 H        -1.188219        -0.111242         2.043892
 H        -2.933046         0.985700        -0.291926
 H        -2.338901        -1.694478        -1.120299
 H        -1.221376        -0.587080        -2.011468
 H         0.282605        -2.509005         1.087277
 H        -0.528181         1.754084         0.775217
 H        -0.544443         1.846263        -0.905125
