19
Iteration:  3185
 C        -2.838100        -1.414208         1.740400
 C        -1.868694        -0.409517         1.189114
 C        -1.961024         0.359602        -0.350067
 C        -1.729725        -0.951837        -1.008584
 C        -0.634217        -1.200957         0.179642
 O        -0.051526        -2.380674         0.268742
 C         0.266767        -0.017547         0.161989
 O         1.449001        -0.033364         0.592681
 C        -0.657118         1.110039        -0.245787
 H        -2.746792        -2.344035         1.159088
 H        -2.485680        -1.632729         2.703049
 H        -3.844205        -1.000438         1.834175
 H        -1.482925         0.343195         1.911196
 H        -2.782190         0.968875        -0.727821
 H        -2.543737        -1.733759        -0.917276
 H        -1.338075        -0.945592        -2.031389
 H         0.846005        -2.121057         0.148559
 H        -0.664226         1.938993         0.477059
 H        -0.389181         1.556510        -1.194552
