19
Iteration:  1968
 C        -3.084502        -1.477918         1.427617
 C        -1.744126        -0.569127         1.282484
 C        -2.030870         0.452061         0.081424
 C        -1.599768        -0.854525        -0.918240
 C        -0.659177        -1.178107         0.230862
 O        -0.123830        -2.446136         0.398453
 C         0.335331        -0.002714         0.070031
 O         1.550146         0.003293         0.130407
 C        -0.624085         1.224527        -0.129561
 H        -3.164689        -2.202422         0.668354
 H        -2.854548        -2.146891         2.393743
 H        -4.099483        -0.969128         1.495494
 H        -1.327797        -0.206582         2.314179
 H        -3.044931         0.860553         0.004075
 H        -2.295117        -1.680540        -1.158576
 H        -1.017304        -0.771529        -1.886903
 H         0.705947        -2.327954         0.953236
 H        -0.392844         1.951666         0.571080
 H        -0.575730         1.566523        -1.216918
