19
Iteration:  3038charge 0 multiplicity 1
 C        -3.103813        -1.462194         1.388828
 C        -1.896063        -0.563775         1.076915
 C        -1.958887         0.344055        -0.114366
 C        -1.566922        -0.919861        -0.998953
 C        -0.601757        -1.193888         0.314783
 O         0.019163        -2.287687         0.813771
 C         0.277892         0.016227         0.097284
 O         1.481589        -0.056267         0.014582
 C        -0.631091         1.176132        -0.059034
 H        -4.018335        -1.054312         0.927035
 H        -2.937228        -2.583807         1.096378
 H        -3.218555        -1.444852         2.511142
 H        -1.666907         0.051112         1.970058
 H        -2.983819         0.826025        -0.266523
 H        -2.301430        -1.678006        -1.116064
 H        -1.120734        -0.692128        -1.994419
 H         0.833517        -2.218768         0.344140
 H        -0.374367         1.742223         0.880518
 H        -0.585037         1.909927        -0.927007
