19
Iteration:  3441
 C        -2.752093        -1.416484         1.639758
 C        -1.758476        -0.437852         1.114580
 C        -1.989620         0.320146        -0.212566
 C        -1.619463        -0.902901        -1.070999
 C        -0.646276        -1.165882         0.138175
 O        -0.170948        -2.463718         0.395835
 C         0.274761        -0.043704         0.148782
 O         1.411558         0.037217         0.540599
 C        -0.671199         1.160221        -0.239985
 H        -2.871853        -2.350870         1.186642
 H        -2.706750        -1.548857         2.832294
 H        -3.759224        -0.867508         1.442220
 H        -1.394468         0.173653         1.996552
 H        -2.952557         0.850593        -0.262360
 H        -2.501320        -1.603570        -0.842560
 H        -1.429957        -0.782954        -2.184993
 H         0.751698        -2.557945         0.565830
 H        -0.790315         1.968362         0.451837
 H        -0.381429         1.494458        -1.239000
