19
Iteration:   693
 C        -2.751478        -1.520593         1.681044
 C        -1.719933        -0.623416         1.095722
 C        -2.016601         0.441271        -0.155730
 C        -1.620430        -0.775048        -1.173336
 C        -0.731989        -1.115965         0.096171
 O        -0.212387        -2.482061         0.511189
 C         0.298847        -0.038910         0.123836
 O         1.467413        -0.071753         0.374917
 C        -0.707649         1.279309        -0.091194
 H        -3.359527        -2.102117         0.979717
 H        -2.408551        -2.222058         2.409168
 H        -3.366333        -0.796897         2.264693
 H        -1.294088        -0.042703         1.899412
 H        -2.985999         0.954921        -0.266411
 H        -2.421719        -1.470869        -1.116906
 H        -1.103109        -0.536926        -2.124043
 H         0.796153        -2.440594         0.469576
 H        -0.563122         2.170874         0.586204
 H        -0.523576         1.696518        -1.056372
