19
Iteration:  3645charge 0 multiplicity 1
 C        -2.927829        -1.556153         1.515531
 C        -1.868230        -0.522836         1.108793
 C        -2.021029         0.405176        -0.223280
 C        -1.465056        -0.804867        -1.000271
 C        -0.642876        -1.163081         0.339374
 O        -0.173457        -2.400015         0.657518
 C         0.253545        -0.022509         0.163161
 O         1.474484        -0.030403         0.079161
 C        -0.645724         1.164237        -0.067786
 H        -3.373281        -2.103299         0.598462
 H        -2.523318        -2.344405         2.160050
 H        -3.740300        -0.975799         2.032309
 H        -1.403367         0.090614         1.941563
 H        -2.927816         0.947872        -0.462259
 H        -2.289376        -1.425671        -1.287549
 H        -0.920802        -0.517928        -1.952582
 H         0.814394        -2.243427         0.562545
 H        -0.475215         1.956880         0.749445
 H        -0.311091         1.614468        -1.011398
