19
Iteration:   334
 C        -2.823462        -1.443663         1.652696
 C        -1.825337        -0.508995         1.055576
 C        -1.912827         0.419774        -0.178855
 C        -1.664853        -0.886879        -1.066392
 C        -0.735046        -1.187997         0.141579
 O        -0.093070        -2.493815         0.355073
 C         0.254826        -0.043356         0.163576
 O         1.450561        -0.007314         0.352701
 C        -0.645156         1.206525        -0.004382
 H        -3.302457        -2.176562         0.971751
 H        -2.316587        -1.848349         2.515783
 H        -3.623643        -0.708186         2.039627
 H        -1.330130         0.062849         1.870480
 H        -2.783513         0.999942        -0.386958
 H        -2.639537        -1.315475        -1.215965
 H        -1.017801        -0.822229        -2.071702
 H         0.677226        -2.358696         0.892276
 H        -0.770976         1.852530         0.909632
 H        -0.526065         1.775262        -0.880859
