19
Iteration:  3434
 C        -2.821720        -1.399625         1.670265
 C        -1.716326        -0.488539         1.010632
 C        -2.030862         0.337494        -0.190799
 C        -1.636268        -0.944656        -1.034873
 C        -0.643701        -1.152834         0.150158
 O        -0.160786        -2.483128         0.396347
 C         0.282685         0.010332         0.138335
 O         1.448938         0.025791         0.524186
 C        -0.699542         1.190194        -0.207197
 H        -3.105692        -2.426148         1.295428
 H        -2.649136        -1.563923         2.678848
 H        -3.647698        -0.774213         1.464638
 H        -1.250829         0.034981         1.883860
 H        -2.971328         0.809419        -0.421585
 H        -2.483303        -1.670649        -0.957818
 H        -1.262549        -0.757659        -2.034653
 H         0.756756        -2.507780         0.741983
 H        -0.594209         2.014594         0.512355
 H        -0.351096         1.643589        -1.187942
