19
Iteration:  1905
 C        -3.081757        -1.441375         1.589895
 C        -1.788821        -0.644758         1.109342
 C        -1.985061         0.338789        -0.142084
 C        -1.563827        -0.697639        -1.106882
 C        -0.657907        -1.180929         0.201458
 O        -0.055953        -2.382040         0.586394
 C         0.266031        -0.014294         0.127928
 O         1.487743        -0.108611         0.091125
 C        -0.670950         1.209735         0.008563
 H        -3.711958        -2.115871         1.053716
 H        -2.594617        -2.237168         2.177993
 H        -3.571583        -0.856681         2.428793
 H        -1.256306        -0.109858         1.952037
 H        -2.947373         0.840781        -0.468734
 H        -2.348588        -1.453953        -1.200801
 H        -0.938469        -0.432155        -2.006191
 H         0.906547        -2.175314         0.604310
 H        -0.503213         1.688699         1.040860
 H        -0.293008         1.978024        -0.748677
