19
Iteration:  2368charge 0 multiplicity 1
 C        -2.777246        -1.502295         1.592377
 C        -1.806160        -0.459805         1.169548
 C        -1.992695         0.438879        -0.078766
 C        -1.722418        -0.854078        -0.996595
 C        -0.671985        -1.196443         0.173117
 O        -0.173337        -2.472459         0.307182
 C         0.303909         0.016937         0.129255
 O         1.483683        -0.048920         0.372650
 C        -0.619902         1.191360        -0.134837
 H        -3.621660        -1.665961         0.914731
 H        -2.488776        -2.580879         1.606673
 H        -3.341082        -1.365356         2.494491
 H        -1.230196        -0.005781         2.072524
 H        -2.715152         1.214885        -0.386842
 H        -2.661511        -1.430424        -0.886269
 H        -1.316374        -0.563584        -2.000605
 H         0.770235        -2.412766         0.713071
 H        -0.573666         2.041176         0.574241
 H        -0.485745         1.608115        -1.090426
