19
Iteration:  4759charge 0 multiplicity 1
 C        -2.924814        -1.451570         1.560420
 C        -1.816210        -0.515201         1.107922
 C        -1.998630         0.348853        -0.120861
 C        -1.521826        -0.866260        -0.968989
 C        -0.652581        -1.130196         0.251417
 O        -0.142126        -2.447707         0.548430
 C         0.286814        -0.011888         0.082248
 O         1.490448        -0.023010         0.267531
 C        -0.719853         1.208211        -0.156246
 H        -3.371091        -1.868878         0.723541
 H        -2.580372        -2.294258         2.258497
 H        -3.750758        -0.860112         2.044130
 H        -1.398548         0.051425         1.949206
 H        -3.041775         0.754062        -0.326786
 H        -2.201207        -1.679414        -1.388789
 H        -0.979743        -0.577220        -1.828590
 H         0.870979        -2.445085         0.374940
 H        -0.502403         2.158077         0.392724
 H        -0.589707         1.423478        -1.178101
