19
Iteration:  1015charge 0 multiplicity 1
 C        -2.892881        -1.533630         1.509037
 C        -1.749528        -0.569746         1.179156
 C        -1.983206         0.416050        -0.038129
 C        -1.637445        -0.716791        -0.945743
 C        -0.726413        -1.210507         0.238493
 O        -0.204047        -2.496409         0.478995
 C         0.358027        -0.044920         0.078895
 O         1.556260         0.054537         0.221713
 C        -0.650204         1.235120        -0.160659
 H        -3.207962        -2.258000         0.604011
 H        -2.756806        -2.408402         2.215313
 H        -3.993904        -1.043910         1.735186
 H        -1.299471        -0.001315         2.037904
 H        -3.011994         0.831319        -0.010405
 H        -2.320589        -1.508158        -1.155708
 H        -1.272673        -0.497918        -1.994250
 H         0.654945        -2.462066         0.891504
 H        -0.645726         2.161138         0.520120
 H        -0.532087         1.467456        -1.246306
