19
Iteration:  3951
 C        -2.866584        -1.515628         1.502524
 C        -1.756268        -0.541726         1.124124
 C        -1.958170         0.412414        -0.153179
 C        -1.619133        -0.967153        -1.001249
 C        -0.648536        -1.148565         0.223295
 O        -0.243080        -2.416916         0.556702
 C         0.286621        -0.000126         0.117738
 O         1.504002         0.075398         0.303649
 C        -0.647303         1.194903        -0.180245
 H        -3.354630        -2.093906         0.711176
 H        -2.504410        -2.214039         2.207309
 H        -3.738834        -0.988231         1.903579
 H        -1.306744         0.053963         1.925005
 H        -2.829331         1.065753        -0.360124
 H        -2.489175        -1.721926        -0.989708
 H        -1.160674        -0.902360        -2.010127
 H         0.702373        -2.487320         0.800529
 H        -0.652407         1.945718         0.630710
 H        -0.464607         1.715163        -1.037697
