19
Iteration:   228charge 0 multiplicity 1
 C        -2.853787        -1.596910         1.559447
 C        -1.777881        -0.515034         1.107708
 C        -1.942683         0.474686        -0.140288
 C        -1.496622        -0.851829        -1.089244
 C        -0.660614        -1.080073         0.233327
 O        -0.207438        -2.377363         0.526526
 C         0.288028         0.015965         0.153011
 O         1.445274        -0.214916         0.074076
 C        -0.751820         1.256643         0.066801
 H        -3.589647        -1.976866         0.828902
 H        -2.398465        -2.531575         1.821510
 H        -3.327110        -1.143417         2.420158
 H        -1.538970         0.138478         1.937812
 H        -2.794655         1.036749        -0.336497
 H        -2.355035        -1.344935        -1.078282
 H        -1.051861        -0.819708        -2.040836
 H         0.736426        -2.186045         0.985959
 H        -0.846681         1.961875         0.945409
 H        -0.432728         2.009322        -0.651793
