19
Iteration:  4439charge 0 multiplicity 1
 C        -2.974598        -1.588199         1.428957
 C        -1.854712        -0.499800         1.159216
 C        -1.989310         0.354081        -0.114981
 C        -1.574494        -0.808358        -0.957029
 C        -0.615848        -1.123277         0.363369
 O        -0.166086        -2.386517         0.673243
 C         0.321360         0.032975         0.070193
 O         1.520207        -0.076648         0.031692
 C        -0.617530         1.218416        -0.071806
 H        -3.460584        -1.750265         0.379699
 H        -2.586186        -2.435434         1.931572
 H        -3.926693        -1.259372         1.795878
 H        -1.538751        -0.166319         2.160582
 H        -2.850135         0.920926        -0.424005
 H        -2.223818        -1.665482        -1.137943
 H        -1.015466        -0.536844        -1.967373
 H         0.703364        -2.374398         1.015600
 H        -0.603612         1.958299         0.697460
 H        -0.634852         1.804750        -1.122215
