19
Iteration:  1370
 C        -2.872862        -1.542383         1.341184
 C        -1.790769        -0.514815         1.188232
 C        -1.955213         0.430684        -0.040100
 C        -1.696401        -0.869250        -0.900893
 C        -0.642096        -1.092558         0.244734
 O        -0.218158        -2.367558         0.567692
 C         0.298836         0.003196         0.126226
 O         1.536393        -0.070517         0.113431
 C        -0.621380         1.181454        -0.045234
 H        -3.100461        -1.956226         0.389280
 H        -2.590843        -2.475323         1.944210
 H        -3.780895        -1.027972         1.870233
 H        -1.504031        -0.036045         2.210263
 H        -2.824106         0.946914        -0.448194
 H        -2.370751        -1.733950        -1.021029
 H        -1.367947        -0.798066        -1.955503
 H         0.818384        -2.463716         0.530810
 H        -0.532727         1.886709         0.824526
 H        -0.614589         1.630271        -1.069090
