19
Iteration:  1362charge 0 multiplicity 1
 C        -2.821321        -1.523478         1.324362
 C        -1.812672        -0.493549         1.165907
 C        -1.997244         0.410160         0.003202
 C        -1.627791        -0.847531        -0.918970
 C        -0.680058        -1.127893         0.267906
 O        -0.175409        -2.324494         0.577683
 C         0.293396        -0.017676         0.154920
 O         1.489836        -0.119780         0.110900
 C        -0.651021         1.161952        -0.095243
 H        -3.386492        -2.036210         0.477271
 H        -2.502389        -2.325120         1.969669
 H        -3.690152        -1.105306         1.691934
 H        -1.592348        -0.198128         2.244608
 H        -2.915571         1.034085        -0.047836
 H        -2.402664        -1.584632        -1.088771
 H        -1.219987        -0.605052        -1.936381
 H         0.822599        -2.229285         0.409973
 H        -0.248824         1.911302         0.654372
 H        -0.471201         1.618585        -1.073982
