19
Iteration:   724
 C        -2.806919        -1.569857         1.638672
 C        -1.805541        -0.462064         1.131671
 C        -2.014940         0.447717        -0.187234
 C        -1.572817        -0.827184        -1.091222
 C        -0.702814        -1.136949         0.203444
 O        -0.223985        -2.429784         0.470464
 C         0.273397        -0.058886         0.103780
 O         1.501895        -0.027227         0.252549
 C        -0.652197         1.155354         0.012432
 H        -3.182233        -2.051768         0.797008
 H        -2.389453        -2.154761         2.445716
 H        -3.589896        -0.988670         2.116606
 H        -1.484148         0.098226         2.041383
 H        -2.896129         0.967735        -0.548759
 H        -2.383318        -1.492113        -1.091121
 H        -1.019143        -0.644020        -2.063809
 H         0.777195        -2.277857         0.248590
 H        -0.598831         1.783008         0.846478
 H        -0.438737         1.607718        -0.958854
