19
Iteration:  1193charge 0 multiplicity 1
 C        -2.733787        -1.506912         1.735635
 C        -1.767010        -0.507976         1.077603
 C        -2.009561         0.342414        -0.216387
 C        -1.678550        -0.776078        -1.215445
 C        -0.704216        -1.134735         0.050292
 O        -0.131207        -2.367158         0.432013
 C         0.254866         0.002114         0.176983
 O         1.425790        -0.197751         0.455754
 C        -0.694323         1.191635        -0.093880
 H        -3.428583        -2.016673         1.208260
 H        -2.052589        -1.998021         2.392793
 H        -3.413768        -0.935772         2.398911
 H        -1.340675         0.137760         1.932766
 H        -2.857625         1.035001        -0.250403
 H        -2.517594        -1.505622        -1.280120
 H        -1.062906        -0.509884        -1.998599
 H         0.883958        -2.193353         0.654042
 H        -0.657933         1.957344         0.667462
 H        -0.416904         1.846685        -0.971076
