19
Iteration:   169charge 0 multiplicity 1
 C        -2.915100        -1.469583         1.495177
 C        -1.663648        -0.626534         1.150840
 C        -2.016017         0.383654        -0.004315
 C        -1.648728        -0.857146        -0.925354
 C        -0.652663        -1.177079         0.099355
 O        -0.234872        -2.487263         0.462889
 C         0.333004         0.073254         0.124574
 O         1.510118         0.010338         0.277417
 C        -0.607577         1.264757        -0.143560
 H        -3.335988        -2.136160         0.728139
 H        -2.720601        -1.992426         2.471201
 H        -3.827110        -0.812141         1.730847
 H        -1.387044        -0.266020         2.152155
 H        -3.031548         0.945350        -0.047385
 H        -2.511718        -1.656987        -1.074920
 H        -1.360262        -0.529613        -1.979384
 H         0.649000        -2.514911         0.192064
 H        -0.552346         1.960405         0.727570
 H        -0.408682         1.651438        -1.164883
