19
Iteration:    67charge 0 multiplicity 1
 C        -2.808433        -1.434156         1.633636
 C        -1.729549        -0.480339         1.131907
 C        -1.979614         0.355399        -0.077134
 C        -1.720622        -0.756545        -1.041756
 C        -0.646864        -1.232431         0.033744
 O        -0.176406        -2.523502         0.383887
 C         0.305350        -0.049794         0.056568
 O         1.487809        -0.020545         0.388058
 C        -0.708330         1.205733        -0.066298
 H        -2.463944        -2.471400         1.555955
 H        -2.967427        -1.225054         2.694957
 H        -3.658549        -1.235256         1.064013
 H        -1.369063         0.070381         1.997407
 H        -2.883130         0.847819        -0.228995
 H        -2.606272        -1.307627        -1.209966
 H        -1.198088        -0.405140        -1.953251
 H         0.595040        -2.407366         0.933706
 H        -0.675095         1.813051         0.811184
 H        -0.435572         1.837815        -0.929778
