19
Iteration:  1041
 C        -2.842467        -1.583429         1.497807
 C        -1.837647        -0.498971         1.157823
 C        -1.949660         0.391588        -0.098807
 C        -1.582094        -0.800531        -1.011484
 C        -0.669030        -1.112370         0.225822
 O        -0.229500        -2.400232         0.510426
 C         0.267099         0.021747         0.115748
 O         1.459642        -0.055762         0.125910
 C        -0.583252         1.207861         0.006158
 H        -3.051807        -2.267163         0.711058
 H        -2.418567        -2.421726         2.130244
 H        -3.787416        -1.268807         2.020204
 H        -1.508770         0.099159         2.001118
 H        -2.907864         0.920246        -0.365824
 H        -2.302399        -1.654791        -1.009742
 H        -1.317297        -0.681708        -2.022318
 H         0.634985        -2.459418         0.869347
 H        -0.479094         1.873015         0.866067
 H        -0.318435         1.765919        -0.962491
