19
Iteration:  3822
 C        -2.899826        -1.494245         1.470973
 C        -1.831827        -0.511808         1.098982
 C        -1.943279         0.320341        -0.115146
 C        -1.510612        -0.883467        -0.994176
 C        -0.640241        -1.148019         0.273366
 O        -0.249202        -2.457062         0.640709
 C         0.303139         0.055111         0.138414
 O         1.510817         0.032077         0.211675
 C        -0.697791         1.189721        -0.170980
 H        -3.433958        -1.884110         0.674183
 H        -2.528585        -2.271301         2.126415
 H        -3.529279        -0.966853         2.184722
 H        -1.400011        -0.074732         1.939123
 H        -2.886725         0.756923        -0.569177
 H        -2.385004        -1.621442        -1.197134
 H        -1.176451        -0.389491        -1.890353
 H         0.708254        -2.532911         0.502661
 H        -0.507585         2.101360         0.502710
 H        -0.538240         1.465944        -1.181419
