19
Iteration:  3889
 C        -3.161505        -1.426756         1.464888
 C        -1.852979        -0.640869         1.169601
 C        -1.977014         0.352473        -0.147673
 C        -1.451167        -0.839763        -0.968649
 C        -0.634568        -1.208082         0.408701
 O         0.076047        -2.320465         0.577967
 C         0.242018         0.042591         0.234334
 O         1.423796        -0.198684         0.005113
 C        -0.661483         1.277994        -0.099064
 H        -3.215330        -2.159619         0.737477
 H        -3.113630        -1.834310         2.529832
 H        -3.998521        -0.727331         1.509263
 H        -1.717122        -0.138548         2.103242
 H        -2.864422         0.864980        -0.646255
 H        -2.131689        -1.612030        -1.375381
 H        -0.832729        -0.482112        -1.817791
 H         0.952855        -2.017226         0.301295
 H        -0.886116         1.972454         0.760054
 H        -0.360424         1.854899        -1.033404
