19
Iteration:  1665charge 0 multiplicity 1
 C        -2.879281        -1.468643         1.661464
 C        -1.896898        -0.484000         1.097103
 C        -2.021279         0.381839        -0.174141
 C        -1.357079        -0.818940        -1.025381
 C        -0.694239        -1.181035         0.305597
 O        -0.163524        -2.467973         0.428345
 C         0.235289        -0.029788         0.243120
 O         1.398587        -0.083195         0.026083
 C        -0.623032         1.244202         0.057547
 H        -3.425117        -1.886041         0.721803
 H        -2.279636        -2.330347         2.078066
 H        -3.795240        -0.971726         2.226292
 H        -1.553501         0.173414         1.916748
 H        -2.953186         0.913657        -0.442666
 H        -1.986389        -1.671054        -1.328413
 H        -0.739571        -0.481854        -1.858107
 H         0.815683        -2.313376         0.637026
 H        -0.582492         2.056611         0.800883
 H        -0.565040         1.714757        -0.870553
