19
Iteration:  2610charge 0 multiplicity 1
 C        -2.887680        -1.336994         1.576157
 C        -1.670136        -0.430550         1.120582
 C        -2.008909         0.383910        -0.197630
 C        -1.693502        -1.070561        -0.925617
 C        -0.643873        -1.240637         0.085509
 O        -0.105401        -2.472169         0.297806
 C         0.304474         0.015139         0.161292
 O         1.489634         0.085753         0.502020
 C        -0.748009         1.138194        -0.184537
 H        -3.022575        -2.360916         1.444688
 H        -3.126436        -1.285823         2.717247
 H        -3.843888        -0.973884         1.088467
 H        -1.305235         0.069161         1.941889
 H        -2.884004         0.958775        -0.157218
 H        -2.503841        -1.777112        -1.032731
 H        -1.291841        -1.029430        -2.016589
 H         0.763128        -2.452321         0.882965
 H        -0.642870         1.800369         0.680677
 H        -0.250694         1.846147        -0.840729
