19
Iteration:   283charge 0 multiplicity 1
 C        -3.151173        -1.402409         1.443394
 C        -1.741894        -0.744397         1.264275
 C        -1.989572         0.372822        -0.012779
 C        -1.638459        -0.786889        -0.886741
 C        -0.689017        -1.198477         0.291766
 O        -0.019608        -2.502920         0.419578
 C         0.327156         0.080511         0.197638
 O         1.502333         0.026624         0.188320
 C        -0.572577         1.240445        -0.214826
 H        -3.589750        -1.652513         0.467469
 H        -2.954002        -2.256208         2.088865
 H        -3.822689        -0.736680         1.954075
 H        -1.328009        -0.220683         2.114453
 H        -2.954852         0.803788        -0.129194
 H        -2.346448        -1.526168        -0.979639
 H        -1.296556        -0.518098        -1.845837
 H         0.764199        -2.537452        -0.268281
 H        -0.508158         2.209674         0.320587
 H        -0.349657         1.427402        -1.293429
