19
Iteration:  3330charge 0 multiplicity 1
 C        -2.956896        -1.544259         1.346198
 C        -1.882667        -0.536111         1.169118
 C        -1.992850         0.347623        -0.133330
 C        -1.662453        -0.800978        -1.029725
 C        -0.656931        -1.153353         0.298107
 O        -0.060811        -2.357213         0.811007
 C         0.313898        -0.025994         0.109555
 O         1.507850        -0.066071         0.011714
 C        -0.623912         1.175273        -0.048849
 H        -3.568882        -1.456400         0.560506
 H        -2.497803        -2.577004         1.397236
 H        -3.422915        -1.447981         2.336499
 H        -1.717369         0.225583         1.961224
 H        -2.862976         1.066133        -0.117728
 H        -2.510456        -1.383018        -1.362547
 H        -0.996698        -0.640595        -1.945959
 H         0.824136        -2.049522         0.980095
 H        -0.587274         2.029384         0.648541
 H        -0.404439         1.569515        -1.010137
