19
Iteration:  4459charge 0 multiplicity 1
 C        -2.847069        -1.454176         1.437435
 C        -1.782745        -0.510629         1.086139
 C        -2.044505         0.398377        -0.142580
 C        -1.533515        -0.850577        -0.995097
 C        -0.707548        -1.212808         0.273530
 O        -0.189182        -2.446002         0.663612
 C         0.299098         0.001392         0.157545
 O         1.504295        -0.017887         0.081235
 C        -0.677639         1.214804        -0.033267
 H        -3.374733        -2.178876         0.536906
 H        -2.287048        -2.199657         2.089922
 H        -3.741454        -1.026668         1.955661
 H        -1.539627         0.111504         1.928630
 H        -3.006953         0.828810        -0.264463
 H        -2.363116        -1.558733        -1.157701
 H        -1.015083        -0.754298        -1.950449
 H         0.715038        -2.559352         0.859695
 H        -0.792915         1.953118         0.776653
 H        -0.245214         1.885024        -0.956484
