19
Iteration:  4642charge 0 multiplicity 1
 C        -2.880921        -1.489525         1.466490
 C        -1.906723        -0.441088         1.170890
 C        -1.969632         0.378014        -0.110351
 C        -1.604200        -0.887246        -0.965178
 C        -0.636914        -1.217080         0.174463
 O        -0.157191        -2.389038         0.588843
 C         0.281255        -0.002758         0.085303
 O         1.506260         0.005199         0.226116
 C        -0.630694         1.162066        -0.115598
 H        -3.368980        -2.012583         0.626069
 H        -2.462431        -2.211515         2.222286
 H        -3.799338        -0.995551         1.959138
 H        -1.421394        -0.102503         2.191078
 H        -2.870865         0.847163        -0.488334
 H        -2.447663        -1.710251        -1.055398
 H        -1.182225        -0.914502        -2.113281
 H         0.756126        -2.178854         0.650077
 H        -0.355525         1.919551         0.699697
 H        -0.395463         1.590205        -1.060157
