19
Iteration:  4993
 C        -2.977661        -1.472800         1.443849
 C        -1.776821        -0.560091         1.144455
 C        -2.011063         0.384986        -0.156822
 C        -1.508042        -0.858708        -0.968535
 C        -0.638548        -1.132947         0.353742
 O        -0.102155        -2.394229         0.603785
 C         0.294660        -0.014503         0.163768
 O         1.495687        -0.056402         0.070305
 C        -0.743162         1.202206        -0.106279
 H        -3.696176        -1.815794         0.628733
 H        -2.638318        -2.307626         2.006432
 H        -3.691334        -1.006604         2.083030
 H        -1.493780        -0.055046         2.142836
 H        -2.861087         0.967821        -0.240859
 H        -2.275891        -1.680396        -1.076576
 H        -1.167716        -0.775553        -1.936637
 H         0.826774        -2.297776         0.698611
 H        -0.736068         2.029272         0.547136
 H        -0.367339         1.687775        -0.989272
