19
Iteration:  2920charge 0 multiplicity 1
 C        -2.935327        -1.368421         1.578935
 C        -1.694357        -0.439334         1.143661
 C        -2.006944         0.274297        -0.257793
 C        -1.629133        -1.018313        -0.995310
 C        -0.666814        -1.131940         0.316434
 O         0.000317        -2.420332         0.429665
 C         0.217477         0.044888         0.175386
 O         1.380149        -0.048880         0.542084
 C        -0.705268         1.170544        -0.331485
 H        -3.331847        -1.003269         2.524866
 H        -3.628359        -1.564448         0.777874
 H        -2.440618        -2.285038         1.690396
 H        -1.352152         0.333107         1.862332
 H        -2.864773         0.926678        -0.627431
 H        -2.354137        -1.782741        -1.228939
 H        -1.057685        -0.725872        -1.934252
 H         0.874911        -2.169336         0.249214
 H        -0.574299         2.107668         0.115422
 H        -0.452825         1.399970        -1.379184
