19
Iteration:  3700charge 0 multiplicity 1
 C        -3.031154        -1.354527         1.616720
 C        -1.818651        -0.470130         1.160774
 C        -1.962127         0.322344        -0.124943
 C        -1.638705        -0.975482        -0.989900
 C        -0.598031        -1.202852         0.179471
 O        -0.068310        -2.447361         0.309504
 C         0.287294        -0.016938         0.189441
 O         1.489579         0.084780         0.413301
 C        -0.627663         1.095004        -0.241634
 H        -3.383988        -2.101701         0.905471
 H        -2.759651        -1.661498         2.600497
 H        -3.995739        -0.890113         1.834829
 H        -1.304096         0.072026         2.013958
 H        -2.803854         1.005673        -0.189013
 H        -2.405263        -1.768588        -1.023351
 H        -1.383207        -0.690036        -2.044299
 H         0.887843        -2.372757         0.676680
 H        -0.535705         1.964296         0.517751
 H        -0.519132         1.587192        -1.198439
