19
Iteration:  3074
 C        -3.020580        -1.435684         1.479324
 C        -1.823468        -0.489442         1.115257
 C        -1.984355         0.326243        -0.131359
 C        -1.495510        -0.900651        -0.984778
 C        -0.665353        -1.164105         0.268289
 O         0.051680        -2.348122         0.617752
 C         0.226471        -0.000807         0.109242
 O         1.429697        -0.120868         0.200133
 C        -0.725822         1.207061        -0.158136
 H        -3.982212        -1.273399         0.876786
 H        -2.790262        -2.465935         1.416913
 H        -3.301093        -1.275358         2.489094
 H        -1.548874         0.132831         2.013591
 H        -2.964785         0.771951        -0.252558
 H        -2.293222        -1.644336        -1.187809
 H        -0.994863        -0.578156        -1.908764
 H         0.973003        -2.107637         0.791104
 H        -0.453739         1.897110         0.597823
 H        -0.614257         1.646313        -1.153975
