19
Iteration:  3040charge 0 multiplicity 1
 C        -3.103502        -1.462231         1.392105
 C        -1.866425        -0.574309         1.085886
 C        -1.947932         0.349967        -0.135152
 C        -1.573810        -0.920302        -1.016056
 C        -0.607651        -1.192429         0.306670
 O         0.020351        -2.283937         0.820141
 C         0.276039         0.009364         0.111979
 O         1.468203        -0.065889         0.018364
 C        -0.649058         1.184441        -0.059255
 H        -4.054350        -1.071529         0.895808
 H        -2.972004        -2.508908         1.117366
 H        -3.166573        -1.403440         2.456189
 H        -1.608072         0.029703         2.012482
 H        -2.981665         0.795063        -0.150756
 H        -2.323311        -1.686191        -1.137010
 H        -1.089830        -0.643937        -1.984806
 H         0.890153        -2.170700         0.361701
 H        -0.407214         1.732119         0.830303
 H        -0.565319         1.904606        -0.907426
