19
Iteration:  2416charge 0 multiplicity 1
 C        -2.992322        -1.443153         1.607968
 C        -1.785092        -0.581313         1.161799
 C        -2.015191         0.351048        -0.113117
 C        -1.630737        -0.771890        -1.050252
 C        -0.683502        -1.195389         0.156781
 O        -0.029574        -2.366692         0.456552
 C         0.273060        -0.037674         0.100656
 O         1.507804        -0.151171         0.188038
 C        -0.673249         1.274201        -0.002154
 H        -3.935710        -1.037158         1.390533
 H        -3.093325        -2.494605         1.151315
 H        -3.031173        -1.640379         2.715692
 H        -1.574968         0.122726         1.967146
 H        -2.980532         0.848652        -0.128776
 H        -2.390882        -1.535867        -1.110941
 H        -0.955704        -0.621553        -1.878907
 H         0.990387        -2.114052         0.427778
 H        -0.439844         1.881127         0.862494
 H        -0.289152         1.836164        -0.915712
