19
Iteration:  3953charge 0 multiplicity 1
 C        -2.858710        -1.512058         1.506256
 C        -1.774254        -0.544883         1.122762
 C        -1.950302         0.398481        -0.163727
 C        -1.617984        -0.958048        -0.984313
 C        -0.660269        -1.146907         0.193363
 O        -0.239540        -2.417637         0.558009
 C         0.277865         0.001074         0.127207
 O         1.491213         0.076179         0.309480
 C        -0.636730         1.199371        -0.185764
 H        -3.285477        -2.014388         0.693379
 H        -2.449676        -2.202356         2.270764
 H        -3.696997        -1.004052         1.968225
 H        -1.314601        -0.030390         1.964243
 H        -2.862010         1.074755        -0.320861
 H        -2.437605        -1.743757        -1.006899
 H        -1.094912        -0.879671        -1.992720
 H         0.665500        -2.542882         0.781996
 H        -0.607831         1.974494         0.606883
 H        -0.436795         1.705423        -1.092400
