19
Iteration:  1671
 C        -2.900611        -1.485757         1.694028
 C        -1.899892        -0.523361         1.063800
 C        -1.976932         0.431352        -0.227208
 C        -1.378572        -0.832519        -1.019903
 C        -0.698633        -1.162928         0.331955
 O        -0.212573        -2.457204         0.400139
 C         0.204785         0.012609         0.197687
 O         1.429691        -0.068257         0.073725
 C        -0.623596         1.219547         0.052587
 H        -3.198453        -2.078362         0.809844
 H        -2.244850        -2.182039         2.248941
 H        -3.581455        -1.085387         2.357003
 H        -1.613636         0.039222         2.017657
 H        -2.959925         0.922982        -0.215036
 H        -1.971567        -1.724691        -1.270946
 H        -0.554913        -0.707573        -1.795167
 H         0.802930        -2.325874         0.467668
 H        -0.566676         2.013428         0.800242
 H        -0.451020         1.741910        -0.985372
