19
Iteration:  1108charge 0 multiplicity 1
 C        -3.066527        -1.356352         1.494331
 C        -1.809194        -0.649538         1.229666
 C        -1.938522         0.314609        -0.018808
 C        -1.623752        -0.799006        -0.981300
 C        -0.691979        -1.228928         0.238088
 O        -0.014989        -2.448671         0.402853
 C         0.292678         0.037110         0.099234
 O         1.503735         0.001059         0.174161
 C        -0.619850         1.211335        -0.089054
 H        -3.530390        -1.866286         0.594002
 H        -2.755758        -2.327337         2.101072
 H        -3.878450        -0.797398         2.013922
 H        -1.411878        -0.357865         2.186262
 H        -2.810526         0.935293        -0.113680
 H        -2.428163        -1.566374        -1.084855
 H        -1.331362        -0.603483        -1.994229
 H         0.829609        -2.117711         0.850272
 H        -0.505521         1.885661         0.762531
 H        -0.639841         1.739048        -1.078456
