19
Iteration:   160
 C        -2.957366        -1.453217         1.440559
 C        -1.581720        -0.574495         1.211484
 C        -1.961025         0.420228        -0.020649
 C        -1.750475        -0.854681        -0.935814
 C        -0.649044        -1.219278         0.154902
 O        -0.171380        -2.504512         0.394456
 C         0.256267         0.055478         0.097225
 O         1.479764         0.025691         0.313293
 C        -0.638104         1.213261        -0.147985
 H        -3.223148        -2.204522         0.694903
 H        -2.994432        -1.967736         2.398775
 H        -3.657415        -0.559292         1.455577
 H        -1.063224        -0.150925         2.083045
 H        -2.928744         0.930511         0.257539
 H        -2.430146        -1.695206        -0.804170
 H        -1.245373        -0.888181        -1.905372
 H         0.752483        -2.523770         0.385379
 H        -0.530177         2.002164         0.687308
 H        -0.372565         1.783983        -1.036579
