19
Iteration:  4809
 C        -2.818537        -1.479179         1.604522
 C        -1.826680        -0.431192         1.117232
 C        -2.010743         0.390627        -0.131620
 C        -1.642171        -0.944480        -1.009793
 C        -0.664752        -1.110406         0.088009
 O        -0.110158        -2.382911         0.461076
 C         0.283331        -0.002405         0.102003
 O         1.447550        -0.056030         0.462739
 C        -0.651280         1.127797        -0.236407
 H        -3.510020        -1.959087         0.825757
 H        -2.251693        -2.185721         2.171507
 H        -3.548850        -1.044903         2.270503
 H        -1.347491         0.038320         1.982204
 H        -2.893358         0.963276        -0.347563
 H        -2.401765        -1.594028        -0.988860
 H        -1.416093        -1.058342        -2.120705
 H         0.728680        -2.175197         0.834288
 H        -0.486901         1.841821         0.546564
 H        -0.437474         1.703167        -1.219987
