19
Iteration:   190charge 0 multiplicity 1
 C        -2.891528        -1.614247         1.637508
 C        -1.823253        -0.493174         1.151487
 C        -1.978616         0.410651        -0.165048
 C        -1.584982        -0.655725        -1.118267
 C        -0.677863        -1.162136         0.276782
 O        -0.232803        -2.437903         0.501120
 C         0.348829        -0.028598         0.146985
 O         1.548307        -0.008628         0.201064
 C        -0.672176         1.119702        -0.071035
 H        -3.404271        -2.113823         0.797200
 H        -2.354725        -2.289633         2.359887
 H        -3.729786        -1.148100         2.238445
 H        -1.540831         0.136501         2.052724
 H        -2.892344         1.099517        -0.142043
 H        -2.384381        -1.538292        -1.254194
 H        -0.950640        -0.613425        -2.064849
 H         0.616111        -2.561971        -0.048206
 H        -0.639216         1.838579         0.771670
 H        -0.548040         1.534075        -1.105275
