19
Iteration:  4297
 C        -2.768820        -1.488104         1.601096
 C        -1.699018        -0.485963         1.105237
 C        -1.976445         0.377177        -0.169374
 C        -1.730222        -0.921532        -1.036722
 C        -0.682211        -1.164692         0.105526
 O        -0.168060        -2.470866         0.437921
 C         0.311952         0.061916         0.056881
 O         1.394184        -0.016128         0.634087
 C        -0.633005         1.208657        -0.291884
 H        -3.027603        -2.423399         0.964434
 H        -2.342342        -1.849153         2.531777
 H        -3.721206        -0.942946         1.770908
 H        -1.152485         0.007459         2.028838
 H        -2.904395         0.883678        -0.325353
 H        -2.740252        -1.487266        -1.118779
 H        -1.269769        -0.767704        -2.129040
 H         0.672630        -2.140276         0.933667
 H        -0.631093         2.068372         0.283944
 H        -0.506163         1.506058        -1.394466
