19
Iteration:   192
 C        -2.881885        -1.624790         1.645261
 C        -1.819743        -0.481500         1.155537
 C        -1.999646         0.421607        -0.177395
 C        -1.574913        -0.662772        -1.124061
 C        -0.680939        -1.152089         0.275701
 O        -0.230799        -2.444114         0.508182
 C         0.333767        -0.035078         0.159237
 O         1.543735        -0.012440         0.189487
 C        -0.655091         1.115094        -0.077601
 H        -3.430118        -2.102894         0.825206
 H        -2.349128        -2.297625         2.326353
 H        -3.743017        -1.191299         2.293341
 H        -1.619448         0.129315         2.055115
 H        -2.886857         1.133585        -0.157375
 H        -2.327256        -1.489121        -1.298904
 H        -0.935039        -0.582657        -2.050586
 H         0.630032        -2.507641        -0.067248
 H        -0.667754         1.809625         0.836665
 H        -0.472339         1.553576        -1.064866
