19
Iteration:  4255charge 0 multiplicity 1
 C        -2.807234        -1.445723         1.658499
 C        -1.802493        -0.498498         1.151134
 C        -1.952395         0.319798        -0.215970
 C        -1.631677        -0.959654        -1.032937
 C        -0.721858        -1.214352         0.156982
 O        -0.126422        -2.357790         0.369954
 C         0.277914         0.023743         0.140487
 O         1.418995        -0.050502         0.574239
 C        -0.650047         1.238018        -0.259893
 H        -3.305216        -1.959018         0.787868
 H        -2.301370        -2.062298         2.439458
 H        -3.659447        -0.941397         2.242663
 H        -1.396804         0.266333         1.803149
 H        -2.871990         0.795459        -0.538327
 H        -2.491491        -1.603063        -1.246130
 H        -1.125260        -0.824682        -2.015206
 H         0.804296        -2.267993         0.332345
 H        -0.536272         2.086474         0.371862
 H        -0.482871         1.594819        -1.314326
