19
Iteration:  4715
 C        -3.025800        -1.411549         1.459846
 C        -1.902351        -0.547678         1.133066
 C        -1.995042         0.341800        -0.133819
 C        -1.562486        -0.926841        -0.943042
 C        -0.657398        -1.218604         0.280028
 O         0.039409        -2.439015         0.555356
 C         0.270851         0.029626         0.106652
 O         1.495284        -0.035062         0.099678
 C        -0.636843         1.210479        -0.015189
 H        -3.528073        -2.007503         0.777574
 H        -2.752971        -1.852514         2.452500
 H        -3.771541        -0.615448         1.703030
 H        -1.781729         0.196562         1.860993
 H        -2.959637         0.884496        -0.473392
 H        -2.515384        -1.424428        -1.217409
 H        -1.159374        -1.011722        -1.808114
 H         0.886319        -2.011019         0.644684
 H        -0.513413         1.907371         0.884496
 H        -0.477107         1.897416        -0.817666
