19
Iteration:   291charge 0 multiplicity 1
 C        -3.084185        -1.376273         1.450903
 C        -1.749308        -0.704913         1.226779
 C        -1.972980         0.324631         0.018530
 C        -1.612246        -0.838593        -0.914191
 C        -0.674257        -1.237201         0.288898
 O        -0.064996        -2.458160         0.380025
 C         0.315638         0.117520         0.169491
 O         1.571011         0.005820         0.238510
 C        -0.671128         1.226696        -0.190738
 H        -3.705759        -1.758552         0.613422
 H        -3.128768        -2.175952         2.205644
 H        -3.660920        -0.500289         1.972111
 H        -1.518622        -0.108814         2.139994
 H        -2.957319         0.707628        -0.077291
 H        -2.485260        -1.440299        -1.065651
 H        -1.165358        -0.527663        -1.988151
 H         0.699797        -2.528370        -0.322669
 H        -0.511710         2.212107         0.392308
 H        -0.405897         1.325686        -1.215619
