19
Iteration:  3585charge 0 multiplicity 1
 C        -3.016072        -1.434091         1.352631
 C        -1.832987        -0.493765         1.132836
 C        -2.001319         0.347373        -0.077514
 C        -1.494747        -0.904757        -0.993051
 C        -0.709815        -1.191380         0.385239
 O        -0.007008        -2.398764         0.711965
 C         0.260919         0.011677         0.147177
 O         1.475449        -0.050467         0.001943
 C        -0.673543         1.201007        -0.092424
 H        -3.502839        -1.453934         0.415538
 H        -2.641010        -2.444272         1.616828
 H        -3.834099        -1.261559         2.030560
 H        -1.571867        -0.149218         2.080222
 H        -2.904542         0.990853        -0.154041
 H        -2.494334        -1.404979        -1.210544
 H        -1.057349        -0.672037        -1.972918
 H         0.927201        -2.300994         0.933210
 H        -0.505006         1.815075         0.739183
 H        -0.431998         1.748870        -1.016836
