19
Iteration:  3981
 C        -2.793462        -1.506459         1.681287
 C        -1.810054        -0.488353         1.113161
 C        -2.012783         0.415828        -0.222260
 C        -1.574568        -0.826985        -1.105291
 C        -0.693409        -1.131545         0.236445
 O        -0.136768        -2.444745         0.463394
 C         0.279363        -0.066638         0.196497
 O         1.450470        -0.013339         0.476590
 C        -0.732386         1.147560        -0.315639
 H        -3.411337        -1.830384         0.739216
 H        -2.296373        -2.270432         2.250587
 H        -3.420078        -1.020976         2.487673
 H        -1.366394         0.180615         1.921493
 H        -2.799586         1.093537        -0.347356
 H        -2.333800        -1.577030        -1.336141
 H        -0.964268        -0.623217        -1.933676
 H         0.777946        -2.632341         0.472778
 H        -0.679979         2.087746         0.269192
 H        -0.617981         1.513281        -1.425556
