19
Iteration:   646
 C        -3.013262        -1.383491         1.579967
 C        -1.778994        -0.444806         1.193397
 C        -1.969842         0.428139        -0.072249
 C        -1.714488        -0.950428        -0.808574
 C        -0.630585        -1.222342         0.199466
 O         0.004620        -2.434927         0.181925
 C         0.270083        -0.012170         0.097728
 O         1.461701        -0.024212         0.423163
 C        -0.628077         1.133843        -0.209551
 H        -3.467258        -1.732087         0.685790
 H        -2.698862        -2.383057         1.949306
 H        -3.792539        -1.019817         2.209935
 H        -1.264152        -0.004358         2.056468
 H        -2.881859         0.964364        -0.294464
 H        -2.703150        -1.396700        -0.815107
 H        -1.234794        -0.782457        -1.798764
 H         0.889233        -2.279998         0.542515
 H        -0.475519         1.969793         0.380072
 H        -0.381874         1.538307        -1.220212
