19
Iteration:  4293
 C        -2.755316        -1.469424         1.601585
 C        -1.685310        -0.483004         1.064574
 C        -1.993228         0.342347        -0.157467
 C        -1.742109        -0.886978        -1.036974
 C        -0.679271        -1.182262         0.099854
 O        -0.145019        -2.461303         0.448838
 C         0.301117         0.018532         0.073032
 O         1.383245        -0.010720         0.634223
 C        -0.621074         1.217739        -0.305587
 H        -2.954276        -2.385772         1.093653
 H        -2.344289        -1.970475         2.474299
 H        -3.638584        -0.924392         1.763339
 H        -1.373881        -0.027481         1.983182
 H        -2.919614         0.878200        -0.488728
 H        -2.744027        -1.321428        -1.042227
 H        -1.374557        -0.697490        -2.017536
 H         0.624635        -2.239156         0.964732
 H        -0.599042         2.166802         0.366875
 H        -0.521884         1.501892        -1.348857
