19
Iteration:  1129
 C        -3.027378        -1.401677         1.427999
 C        -1.702992        -0.544923         1.218908
 C        -2.069189         0.441741        -0.050188
 C        -1.643703        -0.919789        -0.830688
 C        -0.567175        -1.182640         0.192263
 O        -0.086907        -2.479133         0.304500
 C         0.331364         0.008647         0.145989
 O         1.533511         0.009798         0.251020
 C        -0.706171         1.158503        -0.080470
 H        -3.690553        -1.694063         0.553114
 H        -2.875162        -2.287952         2.219838
 H        -3.664379        -0.562271         1.864662
 H        -1.433222        -0.019093         2.129491
 H        -3.027738         0.981709        -0.137662
 H        -2.395581        -1.747003        -0.934995
 H        -1.279855        -0.918869        -1.829747
 H         0.936948        -2.373091         0.561284
 H        -0.573434         1.921519         0.691047
 H        -0.647182         1.602430        -1.154539
