19
Iteration:  3129charge 0 multiplicity 1
 C        -2.787941        -1.392540         1.577949
 C        -1.717887        -0.519869         1.100390
 C        -2.021435         0.376092        -0.154077
 C        -1.619100        -0.922949        -0.995355
 C        -0.652878        -1.184110         0.220259
 O        -0.209198        -2.543280         0.424575
 C         0.275730         0.013533         0.092606
 O         1.451828         0.139057         0.511588
 C        -0.691219         1.125874        -0.315256
 H        -3.505882        -1.741015         0.731257
 H        -2.340390        -2.195958         2.066507
 H        -3.423474        -0.889509         2.299903
 H        -1.245116         0.042267         1.978474
 H        -2.905233         0.971292        -0.270004
 H        -2.298659        -1.809969        -1.168004
 H        -1.177118        -0.677309        -1.955174
 H         0.578301        -2.483044         0.960067
 H        -0.477066         1.785428         0.509040
 H        -0.649619         1.628231        -1.305817
