19
Iteration:   580charge 0 multiplicity 1
 C        -2.933491        -1.446935         1.660820
 C        -1.806158        -0.524374         1.081206
 C        -1.998008         0.439168        -0.192567
 C        -1.590132        -0.838249        -1.036628
 C        -0.713841        -1.201540         0.236287
 O        -0.072623        -2.470160         0.394168
 C         0.271155         0.045638         0.169905
 O         1.479107        -0.094747         0.171348
 C        -0.673734         1.219537         0.030558
 H        -3.359342        -2.127156         0.923289
 H        -2.361101        -2.061223         2.411713
 H        -3.594500        -0.799431         2.170013
 H        -1.476114         0.031340         1.962573
 H        -2.995776         0.906391        -0.306321
 H        -2.375346        -1.676303        -1.231081
 H        -0.997624        -0.737003        -1.954848
 H         0.772166        -2.237414         0.738692
 H        -0.640632         1.824473         0.878228
 H        -0.282414         1.707305        -0.903890
