19
Iteration:  3254
 C        -3.016137        -1.398443         1.492352
 C        -1.797608        -0.572623         1.121439
 C        -1.969541         0.341750        -0.077231
 C        -1.589773        -0.919459        -1.006484
 C        -0.649509        -1.201073         0.237024
 O        -0.086244        -2.481570         0.614734
 C         0.293409         0.030632         0.052201
 O         1.473041         0.082694         0.208485
 C        -0.649404         1.158880        -0.089201
 H        -3.498932        -1.837370         0.697116
 H        -2.681640        -2.152936         2.280467
 H        -3.684564        -0.621980         1.959167
 H        -1.212049        -0.127705         2.014144
 H        -2.873377         0.863814        -0.526949
 H        -2.462406        -1.560060        -1.084218
 H        -1.165364        -0.573871        -2.023802
 H         0.891387        -2.265596         0.377078
 H        -0.498085         1.987523         0.636811
 H        -0.595393         1.505393        -1.116708
