19
Iteration:  4720
 C        -3.033119        -1.431036         1.517483
 C        -1.892645        -0.509635         1.054382
 C        -2.005262         0.347091        -0.140584
 C        -1.570306        -0.937311        -0.917419
 C        -0.618536        -1.244948         0.261006
 O         0.005804        -2.429835         0.550502
 C         0.271300         0.040680         0.104613
 O         1.495708        -0.023069         0.106258
 C        -0.639494         1.222361         0.023352
 H        -3.595118        -1.991782         0.677805
 H        -2.840432        -1.951203         2.444487
 H        -3.846982        -0.701532         1.727859
 H        -1.621859         0.159572         1.956935
 H        -2.858253         0.873462        -0.457574
 H        -2.544544        -1.478725        -1.097691
 H        -1.046364        -1.022750        -2.045769
 H         0.981812        -2.100775         0.699949
 H        -0.548431         1.985176         0.844993
 H        -0.376352         1.736901        -0.953909
