19
Iteration:   427charge 0 multiplicity 1
 C        -3.075219        -1.387809         1.616648
 C        -1.736389        -0.577861         1.163679
 C        -2.063079         0.310726        -0.045215
 C        -1.611154        -0.849551        -1.043815
 C        -0.627580        -1.241921         0.047781
 O        -0.115692        -2.443661         0.435068
 C         0.332702        -0.001702         0.109018
 O         1.555718         0.044868         0.364282
 C        -0.636719         1.186310        -0.136427
 H        -3.638170        -1.560968         0.680344
 H        -2.759593        -2.227985         2.297797
 H        -3.672420        -0.662148         2.143278
 H        -1.367751        -0.052453         2.033683
 H        -3.084641         0.841431        -0.141864
 H        -2.395008        -1.704935        -1.164601
 H        -1.236122        -0.665344        -1.987594
 H         0.907372        -2.425764         0.220750
 H        -0.406522         1.767501         0.737922
 H        -0.509245         1.924111        -1.008105
