19
Iteration:   185charge 0 multiplicity 1
 C        -2.903723        -1.569142         1.615776
 C        -1.838348        -0.540411         1.139371
 C        -1.947669         0.387716        -0.104416
 C        -1.620886        -0.700621        -1.096626
 C        -0.662546        -1.172432         0.264528
 O        -0.239035        -2.428492         0.484148
 C         0.349365        -0.010300         0.121187
 O         1.568884        -0.001312         0.229102
 C        -0.694339         1.150773        -0.072977
 H        -3.271440        -2.171413         0.770965
 H        -2.434583        -2.242733         2.314954
 H        -3.681702        -1.008265         2.089267
 H        -1.359559         0.028576         1.946896
 H        -2.838455         0.941443        -0.212915
 H        -2.336140        -1.423643        -1.138324
 H        -1.091797        -0.569152        -2.006085
 H         0.580531        -2.684468         0.037925
 H        -0.532427         1.998753         0.602816
 H        -0.630805         1.576911        -1.076254
