19
Iteration:  3888charge 0 multiplicity 1
 C        -3.166665        -1.434966         1.468397
 C        -1.848106        -0.621742         1.164688
 C        -1.982896         0.360250        -0.141058
 C        -1.447744        -0.846137        -0.966629
 C        -0.638419        -1.205282         0.404418
 O         0.082491        -2.320579         0.579551
 C         0.251793         0.045841         0.233697
 O         1.426160        -0.204251         0.004399
 C        -0.671455         1.273526        -0.100265
 H        -3.265936        -2.138573         0.736473
 H        -3.105477        -1.833933         2.498987
 H        -3.996645        -0.734206         1.472286
 H        -1.708640        -0.164142         2.093887
 H        -2.868064         0.881863        -0.640314
 H        -2.140990        -1.655685        -1.391736
 H        -0.848267        -0.462113        -1.828419
 H         0.963092        -2.044746         0.312633
 H        -0.887449         1.966564         0.769351
 H        -0.367613         1.830623        -0.981861
