19
Iteration:   730
 C        -2.834769        -1.572227         1.610035
 C        -1.823639        -0.422016         1.119132
 C        -2.015004         0.439359        -0.147725
 C        -1.549462        -0.841862        -1.043636
 C        -0.709521        -1.165484         0.237006
 O        -0.215778        -2.445664         0.446620
 C         0.307211        -0.002532         0.164403
 O         1.511213        -0.038727         0.216783
 C        -0.647575         1.164670        -0.031544
 H        -3.348103        -2.205707         0.789710
 H        -2.371593        -2.255101         2.404612
 H        -3.686385        -0.954124         1.979795
 H        -1.358663         0.018030         2.035177
 H        -2.917426         0.966258        -0.504733
 H        -2.382742        -1.626296        -1.096782
 H        -1.273812        -0.721520        -2.092676
 H         0.715814        -2.117530         0.249856
 H        -0.616839         1.885015         0.873184
 H        -0.351230         1.676103        -1.004164
