19
Iteration:  2562charge 0 multiplicity 1
 C        -2.964064        -1.400252         1.603742
 C        -1.816293        -0.592022         1.201504
 C        -2.003472         0.344987        -0.113157
 C        -1.538983        -0.812217        -1.041542
 C        -0.790551        -1.175453         0.245762
 O        -0.070832        -2.446450         0.420974
 C         0.278744         0.002170         0.161447
 O         1.478454        -0.021844         0.326069
 C        -0.613395         1.194133        -0.218755
 H        -2.435416        -2.362951         2.037511
 H        -3.545066        -1.144300         2.377829
 H        -3.544721        -1.837779         0.848613
 H        -1.360175        -0.097360         2.102647
 H        -2.853175         0.965036        -0.503433
 H        -2.305641        -1.581915        -1.262462
 H        -1.092596        -0.574067        -1.974162
 H         0.842084        -2.198177         0.455140
 H        -0.417549         2.179942         0.303884
 H        -0.571125         1.520712        -1.260967
