19
Iteration:   153charge 0 multiplicity 1
 C        -2.937317        -1.373660         1.445131
 C        -1.616788        -0.575834         1.215171
 C        -1.895506         0.408549         0.001647
 C        -1.776982        -0.867284        -0.935935
 C        -0.645929        -1.198657         0.233999
 O        -0.117804        -2.504823         0.327556
 C         0.285763        -0.038383         0.072076
 O         1.437446         0.042574         0.333735
 C        -0.688237         1.191560        -0.129495
 H        -3.030190        -2.133872         0.668516
 H        -3.085688        -1.893453         2.378958
 H        -3.794135        -0.722834         1.314134
 H        -1.069464        -0.136352         2.074782
 H        -2.795681         0.957523         0.025041
 H        -2.585419        -1.513941        -0.850426
 H        -1.436632        -0.851100        -1.971907
 H         0.854125        -2.421055         0.516276
 H        -0.499248         1.926822         0.636696
 H        -0.506229         1.740821        -1.064074
