19
Iteration:  3085
 C        -3.038778        -1.478677         1.513744
 C        -1.889595        -0.502053         1.129132
 C        -2.013373         0.379902        -0.163951
 C        -1.562334        -0.933217        -0.978989
 C        -0.634313        -1.151629         0.383335
 O        -0.021086        -2.344695         0.509083
 C         0.277937        -0.004166         0.086737
 O         1.506111        -0.031441         0.267349
 C        -0.646527         1.150915        -0.224909
 H        -4.038994        -1.428967         0.938129
 H        -2.651871        -2.444689         1.550397
 H        -3.240941        -1.206006         2.512149
 H        -1.516612         0.009938         2.068354
 H        -2.901430         0.992035        -0.252226
 H        -2.275056        -1.800319        -1.038747
 H        -0.949416        -0.959306        -1.885999
 H         0.887410        -2.096903         0.449207
 H        -0.855242         1.850037         0.530893
 H        -0.267208         1.685288        -1.095072
