19
Iteration:  2253charge 0 multiplicity 1
 C        -2.966031        -1.409958         1.518962
 C        -1.668033        -0.530300         1.182560
 C        -1.965584         0.394886         0.018887
 C        -1.678988        -0.800951        -0.989004
 C        -0.660340        -1.199773         0.181693
 O        -0.029625        -2.392423         0.399816
 C         0.239064        -0.034147         0.076802
 O         1.427066        -0.116313         0.200769
 C        -0.698928         1.133077        -0.043062
 H        -3.306640        -2.166694         0.819680
 H        -2.606195        -2.015948         2.396899
 H        -3.754413        -0.605500         1.660878
 H        -1.169316        -0.084547         2.053692
 H        -2.891146         1.013798         0.104713
 H        -2.614363        -1.364210        -0.997577
 H        -1.236128        -0.601099        -1.972416
 H         0.848424        -2.163316         0.205041
 H        -0.574395         1.766116         0.829618
 H        -0.403583         1.833896        -0.936134
