19
Iteration:  1027charge 0 multiplicity 1
 C        -2.857166        -1.612792         1.466635
 C        -1.792349        -0.559867         1.138816
 C        -1.969861         0.475874        -0.040949
 C        -1.648573        -0.791296        -0.989901
 C        -0.688714        -1.190630         0.249769
 O        -0.224563        -2.485123         0.503113
 C         0.296351         0.016000         0.158427
 O         1.534743         0.023068         0.157720
 C        -0.652162         1.181821        -0.135031
 H        -3.149108        -2.217893         0.547868
 H        -2.377772        -2.093514         2.386106
 H        -3.740018        -0.938506         1.931014
 H        -1.441219        -0.201016         2.140312
 H        -2.856451         1.182835        -0.160902
 H        -2.547022        -1.324408        -1.181261
 H        -0.984324        -0.536600        -1.823838
 H         0.630315        -2.312010         1.045061
 H        -0.460265         2.019416         0.627841
 H        -0.425913         1.695077        -1.123560
