19
Iteration:  4382
 C        -3.039363        -1.356501         1.429969
 C        -1.817594        -0.501042         1.140913
 C        -1.997837         0.351193        -0.088362
 C        -1.525876        -0.928405        -1.029983
 C        -0.697254        -1.224359         0.273023
 O         0.022780        -2.366667         0.584374
 C         0.277344        -0.004082         0.140713
 O         1.489394        -0.081450         0.121063
 C        -0.720448         1.189168        -0.034756
 H        -3.542282        -1.758218         0.485951
 H        -2.889166        -2.290600         1.978205
 H        -3.626495        -0.726850         2.047231
 H        -1.365465        -0.126601         2.030373
 H        -2.967379         0.785353        -0.243077
 H        -2.350467        -1.678135        -1.208310
 H        -0.930763        -0.779001        -1.915881
 H         0.973828        -2.178468         0.690110
 H        -0.735180         1.768506         0.906392
 H        -0.639565         1.954404        -0.896792
