19
Iteration:   374charge 0 multiplicity 1
 C        -2.720405        -1.578828         1.604164
 C        -1.788048        -0.463744         1.151025
 C        -1.992721         0.405687        -0.126821
 C        -1.591464        -0.775755        -1.036113
 C        -0.731410        -1.146107         0.239432
 O        -0.289038        -2.398741         0.365813
 C         0.328422         0.003333         0.090599
 O         1.483715        -0.115343         0.476976
 C        -0.686442         1.174219        -0.246566
 H        -3.121614        -2.185332         0.770850
 H        -2.123551        -2.142250         2.393099
 H        -3.579817        -1.264501         2.187967
 H        -1.539067         0.116447         2.066202
 H        -2.835902         1.148803        -0.372804
 H        -2.313120        -1.622824        -1.281365
 H        -1.037588        -0.513163        -1.877153
 H         0.734714        -2.265394         0.603153
 H        -0.550329         2.045492         0.392088
 H        -0.706004         1.594032        -1.331570
