19
Iteration:  2772
 C        -3.032951        -1.449066         1.338773
 C        -1.835598        -0.465684         1.161958
 C        -1.977882         0.269369        -0.120368
 C        -1.579857        -0.971833        -0.972247
 C        -0.585039        -1.120591         0.340711
 O        -0.005347        -2.324539         0.697392
 C         0.261761         0.062210         0.145744
 O         1.451600        -0.117485         0.095101
 C        -0.689428         1.198979        -0.114396
 H        -3.910869        -0.865538         0.998368
 H        -2.948689        -2.301910         0.682850
 H        -3.202085        -1.712468         2.400172
 H        -1.618555         0.174651         2.090435
 H        -2.874059         0.766341        -0.347206
 H        -2.364627        -1.665862        -1.135927
 H        -0.999371        -1.006821        -1.859973
 H         0.916190        -2.199806         0.549147
 H        -0.461328         1.902158         0.738701
 H        -0.540695         1.813763        -1.012425
