19
Iteration:  3730
 C        -2.924405        -1.334082         1.618320
 C        -1.689812        -0.536322         1.164062
 C        -1.999532         0.396342        -0.181411
 C        -1.651184        -0.923883        -0.961990
 C        -0.685653        -1.195808         0.224603
 O         0.010064        -2.423963         0.296976
 C         0.238410        -0.000382         0.185430
 O         1.386161        -0.047075         0.574534
 C        -0.669457         1.157419        -0.407592
 H        -3.306643        -2.149521         0.948154
 H        -2.767694        -1.863161         2.547245
 H        -3.728327        -0.666027         1.910561
 H        -1.265813        -0.126301         2.037799
 H        -2.918661         0.951366        -0.142104
 H        -2.384249        -1.679926        -0.886332
 H        -1.348575        -0.592420        -2.044594
 H         0.983558        -2.439711         0.337490
 H        -0.535833         1.956716         0.258996
 H        -0.621245         1.498579        -1.463932
