19
Iteration:  1931charge 0 multiplicity 1
 C        -3.063445        -1.378328         1.609011
 C        -1.829745        -0.506255         1.081193
 C        -2.002956         0.375635        -0.137161
 C        -1.470952        -0.919411        -1.024412
 C        -0.698637        -1.204141         0.234214
 O        -0.070587        -2.460468         0.448162
 C         0.291432        -0.011700         0.220024
 O         1.487633        -0.001448         0.033330
 C        -0.682902         1.189251         0.111768
 H        -3.430187        -2.102144         0.758405
 H        -2.774619        -2.110900         2.365960
 H        -3.820196        -0.788670         2.046498
 H        -1.286866         0.123929         1.925825
 H        -2.910328         1.002133        -0.256211
 H        -2.205151        -1.724912        -1.071766
 H        -0.854478        -0.743651        -1.873846
 H         0.839576        -2.350465        -0.036808
 H        -0.610441         1.835685         1.069002
 H        -0.270766         1.821051        -0.633436
