19
Iteration:  4874charge 0 multiplicity 1
 C        -2.955478        -1.337620         1.664964
 C        -1.783084        -0.542951         1.134302
 C        -2.047841         0.402710        -0.180647
 C        -1.644309        -0.911808        -1.007401
 C        -0.686565        -1.283101         0.166854
 O        -0.013364        -2.484759         0.389068
 C         0.329364         0.054775         0.126590
 O         1.542617         0.039132         0.406581
 C        -0.722345         1.160464        -0.193073
 H        -3.545026        -1.972681         0.861680
 H        -2.809996        -2.009355         2.486048
 H        -3.789353        -0.697806         1.924786
 H        -1.371676        -0.194237         2.017922
 H        -2.988881         0.805084        -0.399411
 H        -2.504912        -1.585490        -1.013575
 H        -1.260448        -0.938224        -2.129308
 H         0.859794        -2.348095         0.707197
 H        -0.586008         1.888708         0.590954
 H        -0.475886         1.786370        -1.174954
