19
Iteration:  4903
 C        -2.918031        -1.396892         1.497717
 C        -1.741594        -0.518599         1.196381
 C        -1.988113         0.309319        -0.167535
 C        -1.588371        -0.884728        -0.915973
 C        -0.662312        -1.170573         0.278143
 O        -0.098593        -2.399437         0.431277
 C         0.261764         0.051574         0.101454
 O         1.446488         0.000848         0.271351
 C        -0.660857         1.121912        -0.159895
 H        -3.309552        -2.071042         0.697528
 H        -2.831483        -1.948479         2.428392
 H        -3.830966        -0.783231         1.714236
 H        -1.487218        -0.094016         2.279239
 H        -2.959636         0.751062        -0.412594
 H        -2.404131        -1.787566        -1.077293
 H        -1.275155        -0.761970        -1.900093
 H         0.880407        -2.432521         0.604431
 H        -0.568786         1.909619         0.638705
 H        -0.342179         1.568676        -1.039135
