19
Iteration:  2568
 C        -2.988642        -1.425673         1.654639
 C        -1.823837        -0.595397         1.188281
 C        -2.027432         0.385149        -0.107989
 C        -1.526068        -0.808457        -1.001256
 C        -0.713604        -1.154080         0.209169
 O        -0.081455        -2.484124         0.386506
 C         0.265157         0.008420         0.169132
 O         1.477443         0.017206         0.347248
 C        -0.603462         1.156688        -0.262310
 H        -2.591482        -2.348705         1.919666
 H        -3.571799        -0.964346         2.636404
 H        -3.702653        -1.634475         0.754624
 H        -1.276240        -0.156007         2.059963
 H        -2.915830         0.954819        -0.384964
 H        -2.258417        -1.551880        -1.334513
 H        -0.937713        -0.796797        -2.007211
 H         0.854369        -2.222017         0.522428
 H        -0.566516         2.021325         0.370224
 H        -0.491427         1.482180        -1.328154
