19
Iteration:  1712charge 0 multiplicity 1
 C        -2.827040        -1.463830         1.516165
 C        -1.708320        -0.519319         1.094411
 C        -2.035992         0.418830         0.004415
 C        -1.751327        -0.833191        -1.072082
 C        -0.664930        -1.168529         0.140073
 O        -0.173501        -2.437693         0.490295
 C         0.314348        -0.018978         0.061785
 O         1.529036        -0.018283         0.371610
 C        -0.680605         1.145885        -0.121696
 H        -3.163682        -2.441225         0.855913
 H        -2.393363        -1.878755         2.403288
 H        -3.821485        -0.941762         1.648655
 H        -1.279298        -0.113329         1.977490
 H        -2.935312         1.092595         0.019396
 H        -2.578651        -1.523843        -1.059209
 H        -1.374870        -0.679697        -2.065294
 H         0.768967        -2.397794         0.464354
 H        -0.499812         1.934613         0.667975
 H        -0.300956         1.628487        -1.038154
