19
Iteration:  3637charge 0 multiplicity 1
 C        -2.987159        -1.594770         1.482526
 C        -1.875367        -0.470163         1.089362
 C        -1.969426         0.374882        -0.164185
 C        -1.531899        -0.784988        -1.027485
 C        -0.687743        -1.148184         0.373289
 O        -0.142916        -2.367353         0.689335
 C         0.311615        -0.025553         0.139564
 O         1.526913        -0.058020         0.064253
 C        -0.661839         1.194622        -0.090799
 H        -3.391814        -2.198511         0.696379
 H        -2.459910        -2.473218         2.028788
 H        -3.710365        -1.052211         2.172140
 H        -1.698792        -0.003787         2.120053
 H        -2.765219         1.034441        -0.565713
 H        -2.240082        -1.609416        -1.339206
 H        -0.889895        -0.476049        -1.753121
 H         0.830696        -2.422066         0.386896
 H        -0.558247         1.928128         0.782062
 H        -0.575230         1.645227        -1.069877
