19
Iteration:  1101charge 0 multiplicity 1
 C        -3.044917        -1.436923         1.534942
 C        -1.805369        -0.710020         1.244617
 C        -1.951631         0.409090        -0.070802
 C        -1.608190        -0.801276        -1.021105
 C        -0.756965        -1.236963         0.226959
 O        -0.018670        -2.403977         0.438688
 C         0.272290         0.031345         0.142940
 O         1.497757        -0.013381         0.140964
 C        -0.601418         1.151499        -0.070758
 H        -3.625322        -1.574381         0.590820
 H        -2.611772        -2.056270         2.238449
 H        -3.819412        -0.818684         1.947021
 H        -1.335922        -0.238532         2.154388
 H        -2.882710         0.958701        -0.236712
 H        -2.407127        -1.496705        -1.219549
 H        -0.966316        -0.487837        -1.963156
 H         0.907977        -1.987117         0.717725
 H        -0.462382         1.884784         0.752292
 H        -0.640616         1.718824        -0.960718
