19
Iteration:  4309
 C        -2.799740        -1.461883         1.635100
 C        -1.721219        -0.512274         1.135207
 C        -1.959973         0.415134        -0.175215
 C        -1.644369        -0.942093        -1.024036
 C        -0.701376        -1.184995         0.124454
 O        -0.197380        -2.393567         0.391757
 C         0.277840         0.022632         0.131646
 O         1.411978         0.008549         0.574270
 C        -0.672076         1.173729        -0.328869
 H        -2.855212        -2.230406         0.789174
 H        -2.643780        -2.061771         2.597699
 H        -3.843108        -1.003584         1.810640
 H        -1.200412         0.108618         2.012869
 H        -2.805185         1.086386        -0.092808
 H        -2.238602        -1.931546        -0.956318
 H        -1.155336        -0.887087        -2.126114
 H         0.712514        -2.439408         0.661053
 H        -0.498442         1.937144         0.369145
 H        -0.398056         1.577774        -1.356768
