19
Iteration:  3052
 C        -3.043996        -1.412457         1.403718
 C        -1.708348        -0.632482         1.144047
 C        -1.959631         0.339557        -0.181890
 C        -1.571273        -0.860623        -1.084410
 C        -0.702511        -1.190184         0.294330
 O         0.050554        -2.277545         0.800618
 C         0.222049        -0.002803         0.139711
 O         1.446711        -0.131547         0.055393
 C        -0.741992         1.225883        -0.077889
 H        -3.973827        -0.987516         0.867991
 H        -2.974497        -2.432317         1.207020
 H        -3.341352        -1.373334         2.420395
 H        -1.244793        -0.281524         2.122038
 H        -2.919063         0.888427        -0.163606
 H        -2.395745        -1.574675        -1.287927
 H        -0.966424        -0.705642        -1.998651
 H         1.063864        -2.064624         0.839854
 H        -0.984784         1.869720         0.719916
 H        -0.282318         1.716420        -0.932381
