19
Iteration:   500
 C        -2.968799        -1.492507         1.476780
 C        -1.826533        -0.585863         1.118563
 C        -2.028786         0.439066        -0.048170
 C        -1.697215        -0.826329        -0.960160
 C        -0.675016        -1.191616         0.247630
 O        -0.086802        -2.360150         0.577147
 C         0.340972        -0.033218         0.085131
 O         1.573805        -0.066020         0.127222
 C        -0.634953         1.191064        -0.073641
 H        -3.281527        -2.191691         0.641227
 H        -2.838721        -2.011811         2.422439
 H        -3.806789        -0.728229         1.491627
 H        -1.501494        -0.278541         2.151235
 H        -3.016609         0.868825        -0.197585
 H        -2.384570        -1.681499        -1.260209
 H        -1.159312        -0.405671        -1.891159
 H         0.869663        -2.378552         0.284548
 H        -0.508379         1.777587         0.889534
 H        -0.411469         1.953960        -0.814630
