19
Iteration:  3027
 C        -3.095129        -1.501046         1.403388
 C        -1.985283        -0.515401         1.140934
 C        -2.018732         0.339583        -0.142553
 C        -1.515769        -0.913565        -0.907012
 C        -0.664620        -1.114751         0.372604
 O        -0.003476        -2.341776         0.752864
 C         0.344886         0.004105         0.025011
 O         1.566600        -0.004474        -0.011200
 C        -0.631006         1.158675        -0.047493
 H        -4.028300        -1.152188         0.938496
 H        -2.922456        -2.563785         0.879504
 H        -3.386417        -1.687202         2.481546
 H        -1.747746         0.023932         2.079227
 H        -2.725204         1.000388        -0.712672
 H        -2.319600        -1.599373        -0.851237
 H        -1.049547        -0.908189        -1.913979
 H         0.863170        -2.535134         0.380478
 H        -0.682338         1.830485         0.852676
 H        -0.351508         1.759182        -0.994082
