19
Iteration:  4670
 C        -3.005663        -1.471498         1.441044
 C        -1.851061        -0.578083         1.144345
 C        -1.951606         0.373152        -0.083472
 C        -1.595055        -0.824121        -0.995667
 C        -0.678428        -1.197834         0.398167
 O        -0.049051        -2.365385         0.586132
 C         0.307255         0.039781         0.179889
 O         1.525514        -0.100366         0.126138
 C        -0.693464         1.214616        -0.212060
 H        -3.450838        -2.117798         0.690106
 H        -2.666417        -1.964955         2.350878
 H        -3.915625        -0.929958         1.697690
 H        -1.502280        -0.309519         2.095565
 H        -2.945057         0.885867        -0.210071
 H        -2.297631        -1.583017        -1.236618
 H        -1.087744        -0.661146        -1.843292
 H         0.849611        -2.119558         0.399724
 H        -0.624631         2.011424         0.540514
 H        -0.497118         1.680980        -1.204074
