19
Iteration:   757
 C        -3.026798        -1.514542         1.462416
 C        -1.782073        -0.544149         1.254856
 C        -1.959725         0.413744        -0.039183
 C        -1.598017        -0.830339        -0.907289
 C        -0.630297        -1.151596         0.326426
 O        -0.095376        -2.430943         0.386060
 C         0.286860         0.022586         0.079472
 O         1.522652        -0.062215         0.148702
 C        -0.662761         1.214135        -0.092924
 H        -3.447309        -2.037518         0.627163
 H        -2.930760        -2.317831         2.194040
 H        -3.797311        -0.783625         1.688353
 H        -1.508509        -0.100423         2.260223
 H        -2.886700         0.900588        -0.348486
 H        -2.407757        -1.506339        -1.053687
 H        -1.176513        -0.792179        -1.950864
 H         0.762543        -2.289391         0.826904
 H        -0.535703         2.095311         0.494726
 H        -0.563463         1.517379        -1.160884
