19
Iteration:  2835
 C        -2.846437        -1.452062         1.621584
 C        -1.808102        -0.520257         1.155821
 C        -2.051376         0.325135        -0.261734
 C        -1.456553        -0.908085        -1.065346
 C        -0.666347        -1.148331         0.238866
 O        -0.219124        -2.445769         0.531600
 C         0.297393         0.026206         0.205633
 O         1.502829         0.043087         0.418794
 C        -0.740905         1.167371        -0.325802
 H        -3.569963        -0.940573         2.431836
 H        -3.527125        -1.651608         0.873535
 H        -2.470785        -2.343065         2.104140
 H        -1.559321         0.211014         1.921755
 H        -3.011455         0.802590        -0.575452
 H        -2.258128        -1.604996        -1.226713
 H        -0.773597        -0.792990        -1.942528
 H         0.821514        -2.404659         0.498729
 H        -0.628136         2.013094         0.369088
 H        -0.432905         1.389283        -1.340533
