19
Iteration:  1452
 C        -2.992593        -1.338654         1.695164
 C        -1.771858        -0.521778         1.115427
 C        -1.959811         0.411085        -0.141592
 C        -1.662171        -0.920395        -0.995953
 C        -0.629382        -1.189601         0.085933
 O         0.023715        -2.402434         0.272482
 C         0.265278        -0.009710         0.110466
 O         1.422413        -0.125881         0.431183
 C        -0.689391         1.168726        -0.065203
 H        -3.637057        -1.924732         0.911361
 H        -2.551682        -1.980907         2.462674
 H        -3.698861        -0.586258         2.037289
 H        -1.282059         0.107853         1.892302
 H        -2.991465         0.682658        -0.268592
 H        -2.558980        -1.575976        -0.939747
 H        -1.297786        -0.840822        -2.064084
 H         1.025284        -2.158687         0.442481
 H        -0.513466         1.904596         0.735774
 H        -0.484896         1.737435        -0.982100
