19
Iteration:   640charge 0 multiplicity 1
 C        -3.038452        -1.363431         1.581578
 C        -1.764609        -0.484508         1.217665
 C        -1.927089         0.384016        -0.065488
 C        -1.690173        -0.915366        -0.813024
 C        -0.646809        -1.169452         0.122425
 O         0.019876        -2.452521         0.206216
 C         0.273718        -0.003580         0.158847
 O         1.456736        -0.036146         0.403812
 C        -0.654260         1.126059        -0.229117
 H        -3.660928        -1.743073         0.708364
 H        -2.705668        -2.320760         1.983167
 H        -3.847730        -0.915104         2.244094
 H        -1.194403        -0.007319         2.026101
 H        -2.871323         0.887509        -0.310933
 H        -2.633422        -1.433520        -0.841770
 H        -1.458952        -0.721205        -1.872753
 H         0.997562        -2.276649         0.534708
 H        -0.614340         2.081118         0.452441
 H        -0.393342         1.493847        -1.219316
