19
Iteration:  1502
 C        -2.818526        -1.522573         1.587001
 C        -1.731411        -0.560262         1.231959
 C        -1.950301         0.435920        -0.048166
 C        -1.615057        -0.783453        -0.921985
 C        -0.667000        -1.133817         0.128507
 O        -0.194877        -2.465095         0.344714
 C         0.259349         0.040294         0.093844
 O         1.391070        -0.065234         0.529650
 C        -0.637774         1.185160        -0.385799
 H        -3.092419        -2.238883         0.800547
 H        -2.487468        -2.096687         2.429925
 H        -3.731481        -0.928182         1.594640
 H        -1.180544        -0.111864         2.052458
 H        -2.906360         0.986105        -0.006843
 H        -2.240739        -1.666447        -1.046898
 H        -1.447110        -0.497589        -1.945562
 H         0.746147        -2.444039         0.330461
 H        -0.476877         2.169676         0.145037
 H        -0.533898         1.491052        -1.419357
