19
Iteration:  2382
 C        -2.875011        -1.545688         1.627076
 C        -1.804618        -0.477366         1.184761
 C        -2.012879         0.437958        -0.120403
 C        -1.612762        -0.783189        -0.968167
 C        -0.728874        -1.120819         0.201937
 O        -0.109512        -2.440545         0.293121
 C         0.269110        -0.000832         0.213240
 O         1.471391        -0.154601         0.301589
 C        -0.644398         1.240031        -0.146740
 H        -3.741860        -1.386533         1.072308
 H        -2.313838        -2.591863         1.511997
 H        -3.005152        -1.351176         2.722958
 H        -1.528479         0.169472         2.051057
 H        -3.029303         0.777470        -0.202796
 H        -2.382226        -1.516287        -1.225917
 H        -1.107048        -0.762328        -1.965250
 H         0.794127        -2.233563         0.498638
 H        -0.403532         2.080503         0.481286
 H        -0.299745         1.447849        -1.221243
