19
Iteration:  2131charge 0 multiplicity 1
 C        -2.995836        -1.482606         1.525449
 C        -1.766714        -0.575851         1.216202
 C        -1.966368         0.394234        -0.011540
 C        -1.690500        -0.776567        -0.952992
 C        -0.708458        -1.171705         0.285528
 O        -0.034335        -2.373992         0.363054
 C         0.274864         0.001005         0.075397
 O         1.480344        -0.075305         0.249701
 C        -0.598268         1.124398        -0.136518
 H        -3.814934        -1.340788         0.896149
 H        -2.546830        -2.567179         1.489217
 H        -3.347362        -1.308499         2.559493
 H        -1.527460        -0.015272         2.169355
 H        -2.872627         0.989557        -0.085561
 H        -2.589602        -1.381542        -1.104250
 H        -1.382338        -0.437214        -1.967326
 H         0.928024        -2.285750         0.123847
 H        -0.434322         2.022180         0.452783
 H        -0.266347         1.469279        -1.214144
