19
Iteration:  4996
 C        -2.990971        -1.447926         1.446835
 C        -1.783887        -0.567306         1.157254
 C        -1.983824         0.386791        -0.138002
 C        -1.532205        -0.893979        -0.993698
 C        -0.631641        -1.151759         0.374971
 O        -0.105981        -2.382827         0.588086
 C         0.303913         0.020675         0.166628
 O         1.494279        -0.045626         0.073449
 C        -0.736282         1.182063        -0.105703
 H        -3.690605        -1.819945         0.647925
 H        -2.646603        -2.330676         2.066755
 H        -3.738523        -1.102088         2.140379
 H        -1.574408        -0.169378         2.144016
 H        -2.917309         1.027592        -0.262494
 H        -2.241878        -1.572007        -1.106839
 H        -1.098214        -0.750123        -2.089922
 H         0.895925        -2.398345         0.710056
 H        -0.720090         2.061589         0.530821
 H        -0.354552         1.680784        -1.124377
