19
Iteration:  2093
 C        -2.920781        -1.371137         1.561499
 C        -1.672298        -0.538551         1.187774
 C        -1.958136         0.284151        -0.063021
 C        -1.743305        -0.892647        -0.906874
 C        -0.621827        -1.192424         0.213789
 O        -0.148064        -2.460472         0.216932
 C         0.317725         0.060246         0.059346
 O         1.502751         0.023533         0.343099
 C        -0.675151         1.200626        -0.102868
 H        -3.627523        -1.470182         0.628677
 H        -2.755152        -2.381763         1.738287
 H        -3.488012        -0.920489         2.401443
 H        -1.284368         0.015523         2.020652
 H        -2.928751         0.812423         0.073039
 H        -2.587539        -1.591745        -1.047480
 H        -1.141592        -0.760869        -1.816933
 H         0.359218        -2.715217         1.076056
 H        -0.558309         1.924490         0.777229
 H        -0.507401         1.591295        -1.076303
