19
Iteration:  4665charge 0 multiplicity 1
 C        -3.024962        -1.491236         1.457327
 C        -1.839342        -0.566441         1.124188
 C        -1.955130         0.396627        -0.109085
 C        -1.609460        -0.822428        -0.959232
 C        -0.670864        -1.185864         0.423176
 O        -0.060357        -2.396203         0.588561
 C         0.299636         0.013778         0.148293
 O         1.519872        -0.076456         0.145322
 C        -0.675749         1.215711        -0.232097
 H        -3.332584        -2.226523         0.610918
 H        -2.659563        -2.136020         2.286711
 H        -3.915938        -0.918268         1.792521
 H        -1.336293        -0.167146         2.132427
 H        -2.853316         0.968187        -0.180892
 H        -2.404050        -1.579404        -1.274533
 H        -1.015291        -0.603606        -2.011516
 H         0.920651        -2.092883         0.394639
 H        -0.714501         1.955875         0.600383
 H        -0.464268         1.752499        -1.178833
