19
Iteration:  1883
 C        -2.882734        -1.504954         1.436914
 C        -1.824463        -0.549663         1.200993
 C        -1.995095         0.424392         0.007618
 C        -1.632711        -0.812729        -1.050752
 C        -0.693680        -1.148575         0.250287
 O        -0.088128        -2.354328         0.536929
 C         0.276296        -0.005724         0.116138
 O         1.505711        -0.171408         0.162555
 C        -0.677816         1.197034        -0.081019
 H        -3.373563        -1.834793         0.513511
 H        -2.560126        -2.444085         1.904854
 H        -3.564073        -0.943662         2.151863
 H        -1.537818        -0.005372         2.181601
 H        -2.866280         1.062044        -0.305087
 H        -2.470669        -1.497574        -1.223877
 H        -0.943475        -0.565881        -1.906742
 H         0.934201        -2.220357         0.651815
 H        -0.604096         2.137190         0.559873
 H        -0.667860         1.635426        -1.138974
