19
Iteration:  4957
 C        -2.959103        -1.587450         1.488361
 C        -1.838236        -0.508208         1.128936
 C        -1.954619         0.432088        -0.198330
 C        -1.577086        -0.848831        -1.059569
 C        -0.715044        -1.134270         0.311388
 O        -0.090433        -2.310971         0.667908
 C         0.272079        -0.052878         0.096934
 O         1.493260        -0.091940         0.099780
 C        -0.663210         1.196447        -0.068029
 H        -3.233790        -2.153246         0.662184
 H        -2.523907        -2.273771         2.241215
 H        -3.683748        -0.953964         2.093344
 H        -1.378191         0.053010         2.007652
 H        -2.901297         1.046950        -0.207715
 H        -2.361456        -1.731533        -0.928164
 H        -0.972076        -0.751658        -1.932400
 H         0.814606        -2.052789         0.517046
 H        -0.772854         1.721636         0.921318
 H        -0.347026         1.694599        -0.917539
