19
Iteration:  4621
 C        -2.837865        -1.493371         1.603693
 C        -1.730996        -0.492018         1.071616
 C        -1.999165         0.384740        -0.263083
 C        -1.654272        -0.886580        -1.026576
 C        -0.666242        -1.154563         0.259136
 O        -0.187285        -2.434111         0.499893
 C         0.300016         0.051832         0.162779
 O         1.520669        -0.037651         0.304173
 C        -0.694703         1.178741        -0.143845
 H        -3.495958        -1.907848         0.811658
 H        -2.403717        -2.320808         2.209596
 H        -3.660323        -0.996584         2.166134
 H        -1.521002         0.255005         1.942296
 H        -2.921473         0.934459        -0.288193
 H        -2.417091        -1.738612        -1.133219
 H        -1.169407        -0.916639        -2.109090
 H         0.640318        -2.338572         1.022992
 H        -0.751281         1.882995         0.696000
 H        -0.368664         1.743869        -1.010051
