19
Iteration:  1149
 C        -2.978444        -1.408436         1.590417
 C        -1.773688        -0.515883         1.191011
 C        -1.893355         0.310415        -0.063262
 C        -1.653436        -0.892383        -0.980266
 C        -0.671607        -1.193196         0.267337
 O        -0.122440        -2.441208         0.263680
 C         0.297845         0.017038         0.169439
 O         1.486891         0.027623         0.313368
 C        -0.660877         1.166375        -0.138647
 H        -3.412428        -1.688042         0.719424
 H        -2.524886        -2.189611         2.187445
 H        -3.848861        -0.888533         2.030311
 H        -1.309570         0.126832         1.951966
 H        -2.920486         0.685108        -0.179740
 H        -2.534929        -1.604416        -1.089446
 H        -1.270545        -0.667138        -1.921807
 H         0.848582        -2.430134         0.257691
 H        -0.705318         1.950100         0.619319
 H        -0.283493         1.629061        -1.099959
