19
Iteration:  1522charge 0 multiplicity 1
 C        -2.764232        -1.522484         1.638253
 C        -1.739784        -0.495750         1.152252
 C        -1.999596         0.362165        -0.157921
 C        -1.638508        -0.833206        -1.089165
 C        -0.690769        -1.205590         0.148617
 O        -0.303158        -2.473669         0.377886
 C         0.302979        -0.011462         0.151370
 O         1.499058         0.056117         0.445802
 C        -0.651775         1.191391        -0.144479
 H        -2.990469        -2.234043         0.942473
 H        -2.166964        -1.931909         2.467227
 H        -3.695101        -0.894891         1.745477
 H        -1.302053         0.100285         1.912944
 H        -2.884393         1.020350        -0.262636
 H        -2.585094        -1.384970        -1.164833
 H        -1.103348        -0.887409        -2.070970
 H         0.616023        -2.480305         0.539288
 H        -0.523994         1.978813         0.588455
 H        -0.460874         1.686748        -1.120282
