19
Iteration:   528
 C        -2.857325        -1.567290         1.403527
 C        -1.771617        -0.562894         1.157615
 C        -1.881969         0.454889         0.029390
 C        -1.629588        -0.726309        -0.972914
 C        -0.696816        -1.233285         0.255792
 O        -0.244083        -2.427964         0.650642
 C         0.282209        -0.020065         0.142019
 O         1.499059        -0.020108         0.107501
 C        -0.669919         1.228467        -0.180054
 H        -2.776019        -2.230844         0.595969
 H        -2.593625        -2.224221         2.233244
 H        -3.792237        -0.986589         1.398001
 H        -1.387541        -0.290729         2.133010
 H        -2.899361         0.766367        -0.133597
 H        -2.470011        -1.285289        -1.070781
 H        -1.252684        -0.478791        -1.947359
 H         0.754970        -2.588436         0.412453
 H        -0.450920         2.053700         0.557061
 H        -0.650131         1.668002        -1.186376
