19
Iteration:  2045
 C        -2.768225        -1.480406         1.776564
 C        -1.793981        -0.576121         1.135582
 C        -2.043700         0.408584        -0.186534
 C        -1.549882        -0.806281        -1.094399
 C        -0.739107        -1.183111         0.162251
 O        -0.229794        -2.488235         0.315234
 C         0.294983         0.008957         0.202973
 O         1.510470        -0.045758         0.360195
 C        -0.697120         1.247365        -0.126631
 H        -3.234499        -2.182845         1.125249
 H        -2.382421        -2.069125         2.661669
 H        -3.566608        -0.782360         2.143437
 H        -1.264365         0.039849         1.980376
 H        -2.917908         1.004364        -0.460233
 H        -2.276777        -1.594518        -1.314210
 H        -1.091072        -0.401734        -2.021275
 H         0.677814        -2.366147        -0.004409
 H        -0.708379         1.746392         0.789504
 H        -0.303238         1.831273        -1.005806
