19
Iteration:  4607
 C        -2.835065        -1.460972         1.676361
 C        -1.853439        -0.493905         1.172205
 C        -2.010171         0.354846        -0.239666
 C        -1.530193        -0.876231        -1.042505
 C        -0.641579        -1.142659         0.161746
 O        -0.169112        -2.474001         0.453144
 C         0.270398        -0.017532         0.122653
 O         1.448600        -0.025181         0.375274
 C        -0.670342         1.240793        -0.217232
 H        -3.417181        -1.817985         0.899160
 H        -2.361665        -2.319665         2.272718
 H        -3.497473        -0.887931         2.439439
 H        -1.279464         0.003940         2.022243
 H        -2.909250         0.828720        -0.728697
 H        -2.454238        -1.620107        -0.998440
 H        -1.067317        -0.623403        -2.094995
 H         0.692232        -2.463469         0.918749
 H        -0.638271         2.017210         0.671391
 H        -0.433418         1.729797        -1.120603
