19
Iteration:  1310charge 0 multiplicity 1
 C        -3.009007        -1.384532         1.629529
 C        -1.836117        -0.552546         1.039209
 C        -1.952804         0.355118        -0.152838
 C        -1.628192        -0.872046        -1.039694
 C        -0.653532        -1.175271         0.212971
 O        -0.036848        -2.330127         0.416795
 C         0.261317        -0.016685         0.174265
 O         1.494650        -0.095318         0.164480
 C        -0.664992         1.142180         0.079711
 H        -3.574646        -1.966371         0.775888
 H        -2.610336        -2.081578         2.330679
 H        -3.915127        -0.901067         2.046768
 H        -1.466967        -0.164715         1.915513
 H        -2.844028         0.960436        -0.375617
 H        -2.231367        -1.770479        -1.026079
 H        -0.878843        -0.606089        -1.778503
 H         0.945902        -2.105911         0.358447
 H        -0.624125         1.759691         0.968763
 H        -0.459600         1.841129        -0.701031
