19
Iteration:  2866
 C        -2.857562        -1.339788         1.585379
 C        -1.734991        -0.517424         1.146344
 C        -1.965840         0.342767        -0.303124
 C        -1.674159        -1.056776        -0.981964
 C        -0.679776        -1.240093         0.184611
 O        -0.137407        -2.515010         0.399973
 C         0.329746         0.031609         0.139705
 O         1.453126         0.222148         0.560212
 C        -0.661710         1.127048        -0.308299
 H        -3.285625        -0.950970         2.561694
 H        -3.603134        -1.382796         0.846129
 H        -2.524895        -2.348880         1.785423
 H        -1.405119         0.174019         1.915067
 H        -2.933022         0.879059        -0.564278
 H        -2.602545        -1.619726        -0.888737
 H        -1.298288        -1.242899        -2.035759
 H         0.373337        -2.394260         1.164944
 H        -0.657014         1.762254         0.561084
 H        -0.315869         1.758726        -1.119654
