19
Iteration:  2791
 C        -2.934237        -1.476034         1.407252
 C        -1.851469        -0.488796         1.098448
 C        -2.007443         0.397311        -0.244384
 C        -1.622420        -0.940791        -0.973512
 C        -0.692683        -1.199758         0.297092
 O        -0.001250        -2.275242         0.707185
 C         0.290399        -0.001713         0.093882
 O         1.502412        -0.135084         0.202611
 C        -0.673461         1.175359        -0.103338
 H        -4.009144        -0.994804         1.501927
 H        -2.997358        -2.200181         0.676504
 H        -2.706740        -1.869900         2.366771
 H        -1.437744         0.004963         1.910856
 H        -3.008953         0.851772        -0.462244
 H        -2.396056        -1.686372        -1.023601
 H        -1.275570        -0.875224        -2.018382
 H         0.828316        -1.829061         0.848385
 H        -0.770903         1.821080         0.809107
 H        -0.478085         1.867884        -0.927531
