19
Iteration:   544charge 0 multiplicity 1
 C        -2.851061        -1.626061         1.434439
 C        -1.776080        -0.503478         1.216027
 C        -2.046497         0.458244        -0.086627
 C        -1.622214        -0.766168        -0.921686
 C        -0.675260        -1.104356         0.313716
 O        -0.265727        -2.480013         0.556996
 C         0.331137         0.038415         0.058059
 O         1.543077        -0.049958         0.132164
 C        -0.619580         1.198417        -0.138406
 H        -3.123483        -2.397269         0.625715
 H        -2.596421        -2.195214         2.355529
 H        -3.920512        -1.326442         1.665740
 H        -1.555696         0.080780         2.166308
 H        -2.965886         1.118250        -0.110690
 H        -2.309090        -1.739514        -1.139869
 H        -0.946562        -0.566029        -1.821462
 H         0.670940        -2.458211         0.393658
 H        -0.379844         2.065824         0.581756
 H        -0.334660         1.673197        -1.108455
