19
Iteration:   311charge 0 multiplicity 1
 C        -3.045865        -1.314419         1.568258
 C        -1.726749        -0.581499         1.195460
 C        -2.013216         0.345203        -0.072934
 C        -1.582270        -0.872037        -0.989001
 C        -0.642886        -1.161759         0.162998
 O        -0.103533        -2.477144         0.350859
 C         0.292854        -0.036916         0.127228
 O         1.517141         0.034931         0.324055
 C        -0.680562         1.152110        -0.085167
 H        -3.334501        -1.894041         0.683246
 H        -2.717935        -2.025388         2.329154
 H        -3.918403        -0.697775         1.955851
 H        -1.161269        -0.006518         1.971038
 H        -2.952249         0.926227        -0.213070
 H        -2.172334        -1.839601        -1.023510
 H        -1.187545        -0.592904        -2.064146
 H         0.839058        -2.583844        -0.027896
 H        -0.752428         1.783921         0.836390
 H        -0.608514         1.750442        -0.985910
