19
Iteration:  2014charge 0 multiplicity 1
 C        -2.738305        -1.532135         1.563286
 C        -1.789973        -0.494827         1.160391
 C        -2.011820         0.427609        -0.086892
 C        -1.706813        -0.843202        -0.984013
 C        -0.711953        -1.164693         0.142261
 O        -0.137716        -2.407221         0.430155
 C         0.266153         0.017389         0.142319
 O         1.472316        -0.152993         0.329832
 C        -0.641050         1.271112        -0.131782
 H        -2.857288        -2.334600         0.797515
 H        -2.491968        -1.972310         2.523592
 H        -3.759542        -1.003193         1.556141
 H        -1.443108        -0.101007         2.129448
 H        -2.878515         1.119681        -0.270082
 H        -2.534028        -1.553775        -1.077343
 H        -1.442895        -0.567145        -2.046488
 H         0.772550        -2.422971         0.035194
 H        -0.530070         1.953934         0.735877
 H        -0.320887         1.780762        -1.066348
