19
Iteration:  1797
 C        -2.850645        -1.259484         1.758328
 C        -1.763294        -0.555971         1.036232
 C        -1.942023         0.335803        -0.148234
 C        -1.538489        -0.873379        -1.036466
 C        -0.686113        -1.287239         0.102582
 O        -0.089632        -2.521920         0.251192
 C         0.247499        -0.030793         0.099550
 O         1.381893        -0.025717         0.429845
 C        -0.728713         1.277907        -0.018871
 H        -3.448434        -1.818653         0.993206
 H        -2.400222        -1.869472         2.452094
 H        -3.590431        -0.650306         2.353201
 H        -1.317010         0.081967         1.864300
 H        -2.917651         0.829918        -0.401745
 H        -2.408404        -1.519083        -1.182342
 H        -1.033325        -0.814829        -2.009067
 H         0.798785        -2.336175         0.451107
 H        -0.926616         1.735953         1.002822
 H        -0.428131         1.947092        -0.804520
