19
Iteration:  4378
 C        -3.036600        -1.337301         1.431620
 C        -1.819365        -0.576122         1.117303
 C        -1.967477         0.347780        -0.094774
 C        -1.533024        -0.951447        -1.008767
 C        -0.683833        -1.197524         0.291404
 O        -0.011270        -2.360479         0.557367
 C         0.274833        -0.015683         0.100893
 O         1.488161        -0.060355         0.144889
 C        -0.710435         1.175073        -0.030441
 H        -3.492071        -1.680462         0.530006
 H        -2.806527        -2.269595         2.128805
 H        -3.692262        -0.687758         2.143395
 H        -1.307214        -0.032120         1.967896
 H        -2.930399         0.937770        -0.302635
 H        -2.291456        -1.630848        -1.254313
 H        -0.928776        -0.761647        -1.880363
 H         0.945394        -2.009218         0.752388
 H        -0.838097         1.797766         0.945853
 H        -0.709212         1.840946        -0.817011
