19
Iteration:  3520charge 0 multiplicity 1
 C        -2.936775        -1.333296         1.565938
 C        -1.773756        -0.468982         1.071426
 C        -1.951235         0.335029        -0.167157
 C        -1.611421        -0.882380        -1.004159
 C        -0.609512        -1.216641         0.236287
 O        -0.041051        -2.464238         0.469939
 C         0.235506         0.002867         0.153689
 O         1.412532         0.000222         0.402893
 C        -0.708987         1.107820        -0.212881
 H        -3.196296        -2.131491         0.798553
 H        -2.575182        -1.888530         2.509592
 H        -3.800241        -0.757364         1.923437
 H        -1.262714         0.112127         1.939836
 H        -2.902511         0.788805        -0.429525
 H        -2.541624        -1.567102        -1.138328
 H        -1.208870        -0.670615        -2.059554
 H         0.948057        -2.344233         0.357652
 H        -0.681041         1.723976         0.693895
 H        -0.583601         1.737378        -1.133765
