19
Iteration:  4536
 C        -2.906294        -1.317377         1.592708
 C        -1.665670        -0.513818         1.176521
 C        -1.989759         0.355548        -0.156836
 C        -1.708380        -0.975659        -0.919233
 C        -0.755944        -1.228334         0.209613
 O         0.011840        -2.378371         0.291971
 C         0.255376        -0.032893         0.089197
 O         1.405043        -0.029790         0.503088
 C        -0.661227         1.163027        -0.268752
 H        -3.321255        -1.878759         0.585981
 H        -2.664963        -1.931877         2.467618
 H        -3.831505        -0.726310         1.796226
 H        -1.229916         0.018249         1.976855
 H        -2.920394         0.840967        -0.393371
 H        -2.449396        -1.710135        -0.990054
 H        -1.323040        -0.675168        -1.859549
 H         0.866123        -2.267739         0.863146
 H        -0.409790         1.799364         0.554710
 H        -0.338297         1.766951        -1.259439
