19
Iteration:  2510
 C        -2.906759        -1.548043         1.472054
 C        -1.815660        -0.499331         1.140990
 C        -1.958488         0.406267        -0.103839
 C        -1.658879        -0.859174        -1.042244
 C        -0.700204        -1.123311         0.214364
 O        -0.099504        -2.344207         0.608272
 C         0.272666        -0.015001         0.086331
 O         1.485800        -0.128345         0.125495
 C        -0.596324         1.201508        -0.020207
 H        -3.001884        -1.783510         2.593713
 H        -3.968713        -1.270315         1.190792
 H        -2.723494        -2.520282         1.004473
 H        -1.596473         0.133906         1.934437
 H        -2.803824         1.084307        -0.198021
 H        -2.640841        -1.349633        -1.006392
 H        -0.941864        -0.787626        -1.908009
 H         0.929051        -2.334319         0.695918
 H        -0.772068         1.824658         0.909667
 H        -0.430091         1.920837        -0.790298
