19
Iteration:  4192charge 0 multiplicity 1
 C        -3.051546        -1.403054         1.395554
 C        -1.817264        -0.620410         1.112328
 C        -1.953154         0.388196        -0.138966
 C        -1.614853        -0.950262        -0.916229
 C        -0.580683        -1.172259         0.271354
 O        -0.049905        -2.448499         0.589309
 C         0.300644         0.013343         0.091915
 O         1.516308         0.035723         0.137233
 C        -0.705401         1.209632        -0.046340
 H        -3.620289        -1.531873         0.543928
 H        -3.051056        -2.356588         2.023742
 H        -3.613718        -0.710924         2.048396
 H        -1.690013        -0.278051         2.140194
 H        -2.928995         0.941342        -0.358332
 H        -2.383723        -1.622586        -1.130367
 H        -1.017281        -0.731000        -1.733323
 H         0.853565        -2.268399         0.802525
 H        -0.520706         1.919254         0.893465
 H        -0.551169         1.772545        -0.953399
