19
Iteration:   815charge 0 multiplicity 1
 C        -3.024406        -1.425227         1.530543
 C        -1.824888        -0.560546         1.128824
 C        -1.954341         0.364868        -0.107145
 C        -1.581410        -0.906633        -1.062403
 C        -0.661063        -1.167527         0.253944
 O        -0.039325        -2.351932         0.470108
 C         0.260560         0.037875         0.147482
 O         1.492555        -0.111340         0.112525
 C        -0.684270         1.223827         0.031336
 H        -3.673457        -2.071817         0.851213
 H        -2.614730        -1.963643         2.366514
 H        -3.682665        -0.863267         2.208718
 H        -1.431163        -0.134621         2.051597
 H        -2.917007         0.907210        -0.322757
 H        -2.391578        -1.702427        -1.047305
 H        -0.939384        -0.631199        -1.884627
 H         0.920613        -2.563055         0.241533
 H        -0.725179         1.834226         0.968682
 H        -0.292963         1.914974        -0.695160
