19
Iteration:  4554
 C        -2.945737        -1.349328         1.609945
 C        -1.766007        -0.481516         1.115962
 C        -1.945058         0.349611        -0.098798
 C        -1.726018        -0.961497        -0.968594
 C        -0.621295        -1.162166         0.065823
 O         0.002646        -2.465093         0.356938
 C         0.297546         0.004829         0.052543
 O         1.393901        -0.033679         0.556011
 C        -0.668993         1.192424        -0.261503
 H        -3.493293        -1.825651         0.927083
 H        -2.565036        -2.022492         2.400420
 H        -3.721161        -0.694295         2.033542
 H        -1.240471         0.046982         1.997078
 H        -2.842885         0.967625        -0.049857
 H        -2.643475        -1.621113        -0.790759
 H        -1.367157        -1.115610        -2.014739
 H         1.002143        -2.322363         0.615073
 H        -0.546832         2.054160         0.454445
 H        -0.552778         1.516150        -1.224845
