19
Iteration:  1163charge 0 multiplicity 1
 C        -2.940484        -1.475584         1.715241
 C        -1.764962        -0.527628         1.180061
 C        -1.995242         0.414443        -0.153263
 C        -1.591266        -0.809755        -1.071470
 C        -0.695962        -1.214456         0.126965
 O        -0.098048        -2.478287         0.340149
 C         0.243423        -0.008945         0.150673
 O         1.453284        -0.008240         0.361451
 C        -0.626674         1.183630        -0.142668
 H        -3.551009        -2.049753         0.925077
 H        -2.596238        -2.297759         2.480339
 H        -3.584731        -0.874255         2.366003
 H        -1.401431        -0.044368         2.079237
 H        -2.820915         1.095475        -0.293762
 H        -2.453440        -1.485878        -1.271596
 H        -0.913097        -0.575108        -1.904286
 H         0.879795        -2.250624         0.447868
 H        -0.451639         2.000036         0.587513
 H        -0.474871         1.636501        -1.171705
