19
Iteration:  3149charge 0 multiplicity 1
 C        -2.754173        -1.353002         1.702094
 C        -1.643151        -0.523889         1.188390
 C        -1.919597         0.305240        -0.141837
 C        -1.606471        -0.894539        -1.132346
 C        -0.664465        -1.184066         0.006210
 O        -0.176652        -2.457333         0.448565
 C         0.235837        -0.027407         0.042769
 O         1.334763         0.044149         0.576079
 C        -0.719204         1.185782        -0.266301
 H        -3.124708        -2.068973         0.834728
 H        -2.521070        -2.050648         2.540049
 H        -3.660535        -0.903892         2.055206
 H        -1.336069         0.046757         2.035065
 H        -2.897634         0.746017        -0.313196
 H        -2.387409        -1.601316        -1.360657
 H        -1.063448        -0.632198        -2.027326
 H         0.393196        -2.433109         1.192857
 H        -0.711951         2.063502         0.372554
 H        -0.503072         1.462490        -1.367809
