19
Iteration:  3886
 C        -3.173098        -1.446514         1.477775
 C        -1.844289        -0.582699         1.151765
 C        -1.993945         0.375107        -0.130286
 C        -1.441184        -0.860317        -0.965445
 C        -0.649273        -1.193918         0.392283
 O         0.093848        -2.323285         0.584350
 C         0.271513         0.051178         0.229989
 O         1.432250        -0.213726         0.003479
 C        -0.694706         1.260484        -0.095575
 H        -3.390572        -2.160203         0.687106
 H        -3.087200        -1.846096         2.432533
 H        -4.002973        -0.742011         1.394342
 H        -1.659424        -0.177936         2.122191
 H        -2.861594         0.898709        -0.587120
 H        -2.139975        -1.713689        -1.394226
 H        -0.881360        -0.440052        -1.842182
 H         1.021017        -2.093450         0.330736
 H        -0.865922         1.944196         0.769996
 H        -0.378865         1.790263        -0.900957
