19
Iteration:  2048charge 0 multiplicity 1
 C        -2.775815        -1.489738         1.798218
 C        -1.789325        -0.572589         1.117740
 C        -2.035267         0.399394        -0.170309
 C        -1.565526        -0.799573        -1.089380
 C        -0.738636        -1.189808         0.142353
 O        -0.230943        -2.520466         0.317893
 C         0.291527         0.020634         0.217536
 O         1.513841        -0.027005         0.354910
 C        -0.668559         1.241524        -0.135258
 H        -3.347580        -2.200762         1.084557
 H        -2.441499        -2.030888         2.605152
 H        -3.538463        -0.741003         2.196283
 H        -1.324151         0.048848         1.839807
 H        -2.923529         1.001716        -0.509823
 H        -2.283611        -1.592646        -1.341783
 H        -1.069883        -0.360933        -1.988885
 H         0.756894        -2.338797         0.065196
 H        -0.705840         1.887490         0.820463
 H        -0.408948         1.874994        -0.967176
