19
Iteration:  2077
 C        -2.904566        -1.402997         1.673545
 C        -1.744294        -0.602998         1.191142
 C        -1.998152         0.423175        -0.047001
 C        -1.586779        -0.847770        -1.053781
 C        -0.688734        -1.216664         0.130679
 O        -0.175657        -2.497959         0.242537
 C         0.308190        -0.062010         0.123223
 O         1.485944         0.129144         0.341169
 C        -0.659769         1.112517        -0.126900
 H        -3.633712        -1.572210         0.933843
 H        -2.612612        -2.378205         2.252023
 H        -3.356676        -0.792791         2.477404
 H        -1.118593        -0.114325         2.053130
 H        -2.872838         1.002582        -0.301775
 H        -2.355368        -1.628766        -1.079898
 H        -1.321775        -0.526252        -2.072941
 H         0.320889        -2.430345         1.096665
 H        -0.510664         1.759654         0.705367
 H        -0.349328         1.854558        -0.965020
