19
Iteration:  4577charge 0 multiplicity 1
 C        -2.842722        -1.377411         1.676674
 C        -1.762080        -0.564867         1.151418
 C        -2.039700         0.333898        -0.211895
 C        -1.682846        -0.856478        -1.085991
 C        -0.707498        -1.144018         0.199507
 O        -0.061583        -2.446182         0.374312
 C         0.262390        -0.032272         0.220473
 O         1.449595         0.023310         0.493905
 C        -0.623477         1.111691        -0.286403
 H        -3.572843        -1.677624         0.984364
 H        -2.502014        -2.148614         2.382245
 H        -3.475764        -0.679899         2.215773
 H        -1.299239         0.008799         2.024111
 H        -2.911819         0.956550        -0.386862
 H        -2.505630        -1.615645        -1.226925
 H        -1.249456        -0.652935        -2.111591
 H         0.864956        -2.362443         0.322791
 H        -0.606544         2.005769         0.343966
 H        -0.334365         1.396171        -1.258773
