19
Iteration:  3647charge 0 multiplicity 1
 C        -2.910755        -1.541738         1.511853
 C        -1.866525        -0.541511         1.113763
 C        -2.018253         0.410693        -0.220629
 C        -1.448078        -0.803884        -1.008285
 C        -0.649651        -1.159756         0.320687
 O        -0.175865        -2.409358         0.650864
 C         0.249215        -0.013197         0.167801
 O         1.462218        -0.027218         0.084445
 C        -0.644207         1.157300        -0.071139
 H        -3.380381        -1.990540         0.612348
 H        -2.504519        -2.297733         2.265514
 H        -3.796654        -1.011557         2.015050
 H        -1.408578         0.101577         1.934074
 H        -2.979982         0.909664        -0.426902
 H        -2.305822        -1.460591        -1.259911
 H        -0.969656        -0.593963        -1.921571
 H         0.827950        -2.247940         0.614661
 H        -0.500221         1.964994         0.744825
 H        -0.244309         1.628527        -0.969925
