19
Iteration:  4462charge 0 multiplicity 1
 C        -2.851696        -1.458367         1.471915
 C        -1.785976        -0.499935         1.059236
 C        -2.048782         0.377698        -0.146281
 C        -1.537869        -0.872272        -0.985509
 C        -0.700140        -1.220320         0.242633
 O        -0.206085        -2.434908         0.655606
 C         0.277471         0.003654         0.150374
 O         1.498305        -0.006257         0.096438
 C        -0.640976         1.221648        -0.009407
 H        -3.325889        -2.050284         0.629339
 H        -2.306790        -2.097335         2.110055
 H        -3.768747        -1.081841         1.902402
 H        -1.467375         0.051801         1.992808
 H        -3.047081         0.820792        -0.300393
 H        -2.307801        -1.592745        -1.181264
 H        -0.933399        -0.739764        -2.019410
 H         0.811649        -2.558943         0.775767
 H        -0.765807         1.971016         0.741178
 H        -0.247468         1.825920        -0.937467
