19
Iteration:  1768charge 0 multiplicity 1
 C        -2.981899        -1.362425         1.733266
 C        -1.825904        -0.541768         1.119501
 C        -2.035047         0.330195        -0.131676
 C        -1.691188        -0.809201        -0.955398
 C        -0.634429        -1.158850         0.163061
 O        -0.022906        -2.359039         0.146839
 C         0.296349        -0.035222         0.183794
 O         1.505985        -0.077879         0.485357
 C        -0.637782         1.083242        -0.183554
 H        -3.182085        -2.199419         0.931451
 H        -2.583421        -1.898624         2.636101
 H        -3.803649        -0.711426         1.985297
 H        -1.481036         0.029096         1.941418
 H        -2.885681         0.990240        -0.355487
 H        -2.453097        -1.572722        -0.823472
 H        -1.379560        -0.741638        -1.997217
 H         0.857137        -2.125021         0.413876
 H        -0.572038         2.031387         0.352397
 H        -0.260271         1.229071        -1.209129
