19
Iteration:  2834charge 0 multiplicity 1
 C        -2.851630        -1.457366         1.628455
 C        -1.808044        -0.520713         1.147512
 C        -2.046146         0.319536        -0.266237
 C        -1.462980        -0.897803        -1.071705
 C        -0.686744        -1.143205         0.250428
 O        -0.211629        -2.441996         0.538545
 C         0.300138         0.027913         0.216005
 O         1.505609         0.037593         0.411413
 C        -0.737535         1.169107        -0.331455
 H        -3.586666        -0.953436         2.419810
 H        -3.521713        -1.706426         0.863595
 H        -2.472993        -2.338132         2.092906
 H        -1.491209         0.167054         1.972476
 H        -3.014482         0.822832        -0.601686
 H        -2.272341        -1.610723        -1.230470
 H        -0.741830        -0.764957        -1.940757
 H         0.840725        -2.398505         0.485023
 H        -0.615173         1.984029         0.364657
 H        -0.451700         1.414403        -1.352219
