19
Iteration:  4775charge 0 multiplicity 1
 C        -2.888178        -1.463973         1.535439
 C        -1.785383        -0.473369         1.149837
 C        -2.008885         0.416162        -0.115621
 C        -1.604719        -0.856533        -1.053046
 C        -0.634885        -1.254607         0.189258
 O        -0.137383        -2.459770         0.560712
 C         0.258693         0.038602         0.176654
 O         1.478883        -0.011257         0.324685
 C        -0.690807         1.186666        -0.280256
 H        -3.352227        -2.172245         0.728876
 H        -2.396651        -2.245610         2.088858
 H        -3.570669        -1.040231         2.256917
 H        -1.448573        -0.060520         2.108292
 H        -2.842936         1.039360        -0.274026
 H        -2.404081        -1.477073        -0.839986
 H        -1.118660        -0.683625        -2.086800
 H         0.896384        -2.454859         0.519833
 H        -0.685835         1.936216         0.534606
 H        -0.428916         1.694527        -1.287150
