19
Iteration:  4253
 C        -2.812806        -1.440056         1.670371
 C        -1.819551        -0.510824         1.146858
 C        -1.945852         0.318465        -0.229401
 C        -1.622069        -0.944807        -1.015990
 C        -0.704119        -1.208964         0.171252
 O        -0.133293        -2.362155         0.366324
 C         0.276667         0.025249         0.148685
 O         1.422615        -0.054743         0.564963
 C        -0.655425         1.245556        -0.262084
 H        -3.351188        -1.967447         0.772005
 H        -2.318444        -2.102895         2.378454
 H        -3.640442        -0.904265         2.204272
 H        -1.369697         0.274239         1.796442
 H        -2.886347         0.721859        -0.488975
 H        -2.497737        -1.673839        -1.223229
 H        -1.110140        -0.821606        -2.077932
 H         0.837479        -2.224085         0.298068
 H        -0.532854         2.045633         0.370926
 H        -0.500688         1.620001        -1.335837
