19
Iteration:  1259
 C        -3.006783        -1.458257         1.546582
 C        -1.719486        -0.625031         1.204471
 C        -1.975681         0.340154         0.037563
 C        -1.632899        -0.792394        -1.002028
 C        -0.647691        -1.173942         0.211721
 O        -0.190814        -2.442740         0.279334
 C         0.330636         0.010508         0.111972
 O         1.523644         0.128166         0.366503
 C        -0.617838         1.069844        -0.240822
 H        -3.439736        -1.966187         0.715429
 H        -2.970530        -2.167979         2.392523
 H        -3.722311        -0.661926         1.975586
 H        -1.381919        -0.212318         2.263790
 H        -2.937473         0.841549        -0.057237
 H        -2.405036        -1.570660        -0.943701
 H        -1.066723        -0.536775        -1.875523
 H         0.631903        -2.393623         0.879590
 H        -0.465904         1.977748         0.341608
 H        -0.462787         1.388848        -1.323925
