19
Iteration:  4232charge 0 multiplicity 1
 C        -2.972923        -1.415145         1.603153
 C        -1.796056        -0.525123         1.115715
 C        -2.059386         0.385712        -0.195767
 C        -1.533196        -0.913554        -0.999482
 C        -0.620277        -1.193387         0.222394
 O        -0.067811        -2.436358         0.388146
 C         0.277959         0.049348         0.200930
 O         1.477985        -0.023394         0.397948
 C        -0.725364         1.147866        -0.199448
 H        -3.819544        -1.745120         0.856729
 H        -2.487457        -2.081916         2.311992
 H        -3.513282        -0.854363         2.442229
 H        -1.402268         0.184872         1.891587
 H        -2.832145         1.015203        -0.532927
 H        -2.313305        -1.726874        -1.180727
 H        -1.023915        -0.801918        -2.035042
 H         0.935010        -2.484456         0.618755
 H        -0.762607         1.964696         0.427843
 H        -0.328073         1.568792        -1.205296
