19
Iteration:  2696charge 0 multiplicity 1
 C        -2.871490        -1.441124         1.450467
 C        -1.807976        -0.486293         1.114851
 C        -1.966410         0.313702        -0.225784
 C        -1.570480        -0.975505        -1.019615
 C        -0.654007        -1.148930         0.300223
 O        -0.126026        -2.400324         0.650225
 C         0.244149         0.046426         0.092831
 O         1.429761        -0.051364         0.209879
 C        -0.684688         1.238302        -0.080071
 H        -3.525426        -1.564189         0.555569
 H        -2.384324        -2.434536         1.580489
 H        -3.468304        -1.126490         2.333025
 H        -1.394503         0.173150         2.011276
 H        -2.830938         0.881577        -0.393686
 H        -2.370096        -1.708455        -0.884960
 H        -1.277571        -0.934927        -2.103565
 H         0.894018        -2.151413         0.646410
 H        -0.622356         1.743786         0.931413
 H        -0.288691         1.903005        -0.890147
