19
Iteration:   882charge 0 multiplicity 1
 C        -2.858717        -1.546330         1.497319
 C        -1.687645        -0.510165         1.223563
 C        -1.964833         0.420819        -0.106313
 C        -1.707528        -0.850499        -0.967978
 C        -0.646881        -1.132864         0.174465
 O        -0.285185        -2.440303         0.437649
 C         0.341909        -0.034744         0.097412
 O         1.514438         0.073791         0.351071
 C        -0.642492         1.140329        -0.236476
 H        -3.256568        -2.179226         0.672682
 H        -2.497230        -2.370077         2.072826
 H        -3.639425        -1.242660         2.193168
 H        -1.381905        -0.268663         2.239601
 H        -2.885675         0.975045        -0.117796
 H        -2.529238        -1.587233        -0.914463
 H        -1.310914        -0.571434        -1.952908
 H         0.642956        -2.347108         0.692481
 H        -0.502000         1.963255         0.490644
 H        -0.450353         1.772935        -1.042255
