19
Iteration:  1058charge 0 multiplicity 1
 C        -2.835007        -1.565243         1.528055
 C        -1.828796        -0.489090         1.114162
 C        -2.031321         0.438098        -0.175447
 C        -1.572384        -0.851219        -0.978562
 C        -0.707972        -1.121637         0.279669
 O        -0.172375        -2.382183         0.493706
 C         0.342385        -0.009854         0.161753
 O         1.557345        -0.160334         0.106711
 C        -0.747034         1.259747         0.017156
 H        -3.461940        -2.088882         0.718920
 H        -2.318093        -2.274839         2.191889
 H        -3.727997        -1.111975         2.020271
 H        -1.534520        -0.030562         2.101938
 H        -2.908305         1.050255        -0.412657
 H        -2.414176        -1.448180        -1.265448
 H        -0.843868        -0.742089        -1.850477
 H         0.731699        -2.137402         0.345370
 H        -0.816670         1.684307         1.048105
 H        -0.438898         1.961554        -0.730209
