19
Iteration:  4835
 C        -2.850455        -1.378519         1.660129
 C        -1.751195        -0.505113         1.150272
 C        -2.051282         0.380033        -0.199657
 C        -1.560096        -0.899957        -1.062166
 C        -0.735676        -1.158689         0.177832
 O        -0.035953        -2.466679         0.392094
 C         0.234973        -0.017674         0.160451
 O         1.429734        -0.066650         0.468046
 C        -0.724967         1.209129        -0.229459
 H        -3.413512        -1.833470         0.923266
 H        -2.322740        -2.106378         2.355863
 H        -3.523123        -0.767225         2.341150
 H        -1.114762         0.038018         2.030812
 H        -3.060491         0.867632        -0.539298
 H        -2.465685        -1.685111        -1.229445
 H        -1.069951        -0.835897        -2.036141
 H         0.861023        -2.140108         0.472774
 H        -0.683116         2.139984         0.373385
 H        -0.382349         1.415355        -1.199027
