19
Iteration:  2489charge 0 multiplicity 1
 C        -2.982215        -1.537916         1.499789
 C        -1.849423        -0.552576         1.115133
 C        -1.956430         0.391180        -0.084410
 C        -1.506632        -0.780155        -0.947600
 C        -0.683944        -1.110054         0.382558
 O        -0.134635        -2.421355         0.541953
 C         0.287967        -0.059119         0.160638
 O         1.512106        -0.063120         0.029942
 C        -0.669351         1.239896        -0.079990
 H        -3.410342        -1.387717         2.510225
 H        -3.952184        -1.297094         0.891626
 H        -2.803120        -2.619369         1.338266
 H        -1.447185        -0.149236         2.053512
 H        -2.962202         0.697187        -0.264029
 H        -2.309784        -1.509605        -1.161039
 H        -1.026057        -0.233866        -1.855603
 H         0.891932        -2.376515         0.390207
 H        -0.517234         2.119795         0.585856
 H        -0.317053         1.525978        -1.052253
