19
Iteration:   764
 C        -3.039576        -1.474751         1.429394
 C        -1.801880        -0.551069         1.259005
 C        -1.981394         0.388138         0.012693
 C        -1.558952        -0.824150        -0.891374
 C        -0.713774        -1.183537         0.281263
 O        -0.046204        -2.403558         0.410970
 C         0.310907         0.008561         0.081183
 O         1.517445        -0.046099         0.137391
 C        -0.685362         1.162961        -0.133578
 H        -3.388376        -2.025408         0.525978
 H        -3.109207        -2.306589         2.250721
 H        -3.874913        -0.811221         1.750984
 H        -1.255685        -0.083404         2.100244
 H        -2.856743         1.002117        -0.134230
 H        -2.348404        -1.587282        -0.926965
 H        -1.164560        -0.553548        -1.894059
 H         0.782928        -2.412461         0.821179
 H        -0.326367         2.042292         0.507079
 H        -0.489545         1.728153        -1.100819
