19
Iteration:  2936
 C        -2.880476        -1.427909         1.602146
 C        -1.885765        -0.455611         1.062198
 C        -1.949546         0.358456        -0.297246
 C        -1.586612        -1.011273        -0.980920
 C        -0.675423        -1.188517         0.164472
 O        -0.037451        -2.357572         0.540959
 C         0.226203         0.000945         0.219129
 O         1.438475        -0.016487         0.425031
 C        -0.649940         1.190241        -0.267985
 H        -3.438042        -0.888031         2.442239
 H        -3.590255        -1.662474         0.748121
 H        -2.505619        -2.390691         2.092677
 H        -1.396659         0.021286         1.909919
 H        -2.909350         0.789642        -0.426419
 H        -2.495972        -1.640151        -0.790710
 H        -1.240213        -1.208126        -1.982644
 H         0.912551        -2.173001         0.313170
 H        -0.825910         1.996671         0.542368
 H        -0.242751         1.660389        -1.181364
