19
Iteration:   574
 C        -2.897508        -1.478536         1.608684
 C        -1.840362        -0.512896         1.105527
 C        -2.000405         0.419766        -0.193922
 C        -1.597720        -0.851974        -0.963911
 C        -0.746502        -1.193470         0.200658
 O        -0.122697        -2.437768         0.394407
 C         0.309532         0.034615         0.197759
 O         1.531672        -0.092703         0.145205
 C        -0.675834         1.206002         0.002673
 H        -3.397110        -2.277981         1.033311
 H        -2.365632        -2.041023         2.363418
 H        -3.669404        -0.846066         2.153679
 H        -1.523066        -0.003061         2.044115
 H        -2.927384         0.936478        -0.392635
 H        -2.317480        -1.582991        -1.135627
 H        -0.907313        -0.715722        -1.815090
 H         0.804772        -2.169533         0.763389
 H        -0.711125         2.022481         0.814248
 H        -0.281783         1.792790        -0.823228
