19
Iteration:  1134charge 0 multiplicity 1
 C        -2.970277        -1.345535         1.442504
 C        -1.733739        -0.536313         1.224374
 C        -2.081733         0.382383        -0.077536
 C        -1.635429        -0.916820        -0.829833
 C        -0.611644        -1.181283         0.206827
 O        -0.104123        -2.480477         0.276613
 C         0.327804         0.018445         0.173997
 O         1.540261         0.018671         0.270304
 C        -0.690991         1.156443        -0.100977
 H        -3.520445        -1.880406         0.584333
 H        -2.888816        -2.224442         2.044823
 H        -3.585815        -0.654906         2.007690
 H        -1.439158        -0.185381         2.254574
 H        -2.927143         1.075301        -0.212878
 H        -2.286230        -1.777217        -0.838063
 H        -1.310254        -0.964256        -1.942159
 H         0.817178        -2.289738         0.394867
 H        -0.564010         1.912215         0.696633
 H        -0.651059         1.564612        -1.075988
