19
Iteration:  4448
 C        -2.890098        -1.534526         1.391308
 C        -1.820718        -0.495886         1.145436
 C        -1.951523         0.403920        -0.151869
 C        -1.575339        -0.803753        -1.002888
 C        -0.624081        -1.134005         0.369684
 O        -0.181501        -2.475453         0.674156
 C         0.305899         0.003133         0.155583
 O         1.532602        -0.059361         0.040229
 C        -0.759796         1.214909        -0.093797
 H        -3.331184        -2.054512         0.358164
 H        -2.559756        -2.378627         2.044905
 H        -3.644917        -1.008980         2.011300
 H        -1.569945         0.032327         2.061471
 H        -2.847018         0.956994        -0.309574
 H        -2.406767        -1.526423        -1.084223
 H        -1.080969        -0.632782        -1.950033
 H         0.657797        -2.224003         1.020337
 H        -0.658285         1.766013         0.841599
 H        -0.522367         1.893415        -1.046556
