19
Iteration:  3398charge 0 multiplicity 1
 C        -3.055408        -1.371027         1.609671
 C        -1.803397        -0.525909         1.089107
 C        -2.028210         0.340601        -0.178336
 C        -1.564923        -0.899979        -0.998771
 C        -0.584204        -1.213806         0.282790
 O        -0.008707        -2.434644         0.393086
 C         0.240118        -0.023346         0.168567
 O         1.454920         0.044707         0.287663
 C        -0.661742         1.126496        -0.123815
 H        -3.595024        -1.784402         0.856059
 H        -2.862546        -2.052517         2.501991
 H        -3.631769        -0.593580         2.117771
 H        -1.454413         0.215867         1.917290
 H        -2.978773         0.775605        -0.500092
 H        -2.317220        -1.719754        -1.286236
 H        -0.980873        -0.706484        -1.954778
 H         0.830325        -2.295675         0.913526
 H        -0.374389         1.827627         0.625327
 H        -0.415054         1.487678        -1.135622
