19
Iteration:  2803charge 0 multiplicity 1
 C        -2.930750        -1.524798         1.534993
 C        -1.884644        -0.494815         1.037868
 C        -2.023700         0.371321        -0.207130
 C        -1.569366        -0.898839        -1.058335
 C        -0.687800        -1.123174         0.217152
 O        -0.014073        -2.317294         0.712218
 C         0.242421        -0.012774         0.119444
 O         1.461743        -0.094674         0.256111
 C        -0.639478         1.194628        -0.148471
 H        -3.898288        -0.917758         1.817048
 H        -3.204820        -2.251350         0.847708
 H        -2.596669        -2.145381         2.359479
 H        -1.624302         0.051392         1.904413
 H        -2.861148         0.949340        -0.581144
 H        -2.454701        -1.468561        -0.960902
 H        -1.004464        -0.973678        -1.965846
 H         0.921062        -2.187529         0.770586
 H        -0.235902         1.873096         0.639306
 H        -0.420026         1.638849        -1.125664
