19
Iteration:  4006charge 0 multiplicity 1
 C        -2.851984        -1.412094         1.702640
 C        -1.773969        -0.482333         1.050434
 C        -2.001307         0.268551        -0.210998
 C        -1.646884        -0.959318        -1.058308
 C        -0.687620        -1.125580         0.113300
 O        -0.056637        -2.361531         0.369708
 C         0.260469         0.019170         0.124545
 O         1.378055        -0.075106         0.563535
 C        -0.608666         1.200214        -0.213112
 H        -3.530429        -1.796887         0.981111
 H        -2.328835        -2.224101         2.177431
 H        -3.263657        -0.860217         2.542576
 H        -1.369971         0.231719         1.796198
 H        -2.946795         0.804600        -0.523713
 H        -2.621304        -1.581359        -0.944776
 H        -1.392272        -0.852841        -2.139185
 H         0.812917        -2.352006         0.829697
 H        -0.562892         2.046806         0.501092
 H        -0.356856         1.579328        -1.113168
