19
Iteration:  4443charge 0 multiplicity 1
 C        -2.934629        -1.577892         1.400547
 C        -1.838270        -0.486103         1.144414
 C        -1.959925         0.364716        -0.139868
 C        -1.585426        -0.799500        -0.979373
 C        -0.602713        -1.121707         0.375228
 O        -0.181353        -2.438087         0.671423
 C         0.311012         0.017180         0.111576
 O         1.526392        -0.070755         0.034437
 C        -0.686096         1.227465        -0.097340
 H        -3.361267        -1.774576         0.523650
 H        -2.569482        -2.411512         2.025979
 H        -3.873574        -1.144471         1.868495
 H        -1.540963        -0.132878         2.180311
 H        -2.878524         0.986847        -0.407878
 H        -2.304881        -1.598996        -1.114222
 H        -1.053324        -0.568870        -1.946374
 H         0.751770        -2.230242         1.066410
 H        -0.613757         1.885291         0.823322
 H        -0.656836         1.753684        -0.957564
