19
Iteration:  2316charge 0 multiplicity 1
 C        -2.824280        -1.431880         1.667489
 C        -1.699616        -0.501057         1.149128
 C        -2.009017         0.380903        -0.035353
 C        -1.599719        -0.746708        -1.008058
 C        -0.695405        -1.202064         0.156083
 O        -0.192045        -2.541018         0.233263
 C         0.265375         0.009406         0.184409
 O         1.464692        -0.039661         0.386711
 C        -0.667579         1.196953        -0.189240
 H        -3.180712        -2.253563         1.141783
 H        -2.614844        -1.939523         2.757393
 H        -3.810194        -0.948503         1.910479
 H        -1.271554        -0.011431         2.021396
 H        -3.050447         0.749060        -0.075324
 H        -2.546949        -1.265159        -1.177534
 H        -1.170910        -0.574406        -2.030876
 H         0.841716        -2.462656         0.232025
 H        -0.509675         1.990735         0.562164
 H        -0.422319         1.650111        -1.218191
