19
Iteration:   635charge 0 multiplicity 1
 C        -3.052502        -1.351778         1.573675
 C        -1.762914        -0.533228         1.246303
 C        -1.921521         0.337415        -0.056926
 C        -1.704149        -0.851067        -0.918606
 C        -0.630740        -1.188490         0.109119
 O         0.027857        -2.449800         0.236309
 C         0.276043         0.011789         0.205345
 O         1.463399        -0.049170         0.388240
 C        -0.662457         1.170512        -0.222323
 H        -3.705562        -1.561326         0.765041
 H        -2.683301        -2.215227         2.177827
 H        -3.634805        -0.754166         2.265699
 H        -1.320925        -0.035836         2.124772
 H        -2.857227         0.859431        -0.236907
 H        -2.445692        -1.709244        -0.779431
 H        -1.594395        -0.766665        -2.019065
 H         0.896603        -2.222413         0.463747
 H        -0.673596         1.957204         0.442255
 H        -0.470219         1.401440        -1.297779
