19
Iteration:  2645
 C        -2.923085        -1.531427         1.638723
 C        -1.724427        -0.507871         1.153373
 C        -2.008321         0.451880        -0.136747
 C        -1.629410        -0.907487        -1.056229
 C        -0.692256        -1.191069         0.156843
 O        -0.078551        -2.384044         0.440666
 C         0.259877        -0.016523         0.155816
 O         1.449258        -0.043886         0.495463
 C        -0.662283         1.182430        -0.339226
 H        -2.945765        -2.396028         1.088441
 H        -2.636168        -1.758898         2.730078
 H        -3.881048        -0.956161         1.666911
 H        -1.351008         0.069039         1.935684
 H        -2.915371         1.065138        -0.280514
 H        -2.503570        -1.554824        -1.254103
 H        -1.096193        -0.543442        -1.952150
 H         0.858590        -2.096794         0.522153
 H        -0.558000         2.060618         0.249871
 H        -0.480468         1.309908        -1.408179
