19
Iteration:  1188
 C        -2.770344        -1.468674         1.753995
 C        -1.762388        -0.541012         0.990346
 C        -2.006261         0.334984        -0.196338
 C        -1.651699        -0.738154        -1.172059
 C        -0.672980        -1.177655         0.107890
 O        -0.128922        -2.360887         0.419339
 C         0.258636        -0.013551         0.167376
 O         1.420802        -0.178957         0.442753
 C        -0.675679         1.200909        -0.115584
 H        -3.515956        -2.295212         1.223416
 H        -2.114100        -2.091907         2.438410
 H        -3.346888        -0.901674         2.523560
 H        -1.496770         0.080690         1.838118
 H        -2.927400         0.944604        -0.144053
 H        -2.517660        -1.382346        -1.234477
 H        -1.085683        -0.340767        -2.117927
 H         0.735582        -2.163721         0.712431
 H        -0.626490         1.965599         0.702354
 H        -0.544367         1.766573        -1.028408
