19
Iteration:  1706
 C        -2.854548        -1.484548         1.586239
 C        -1.784092        -0.547297         1.101123
 C        -2.042855         0.410513        -0.090397
 C        -1.736825        -0.807649        -1.081111
 C        -0.651981        -1.153549         0.128599
 O        -0.196629        -2.440806         0.495643
 C         0.354913         0.011388         0.069787
 O         1.569658        -0.027753         0.336939
 C        -0.678740         1.178827        -0.060760
 H        -3.059584        -2.248301         0.932997
 H        -2.486174        -2.054409         2.492435
 H        -3.850695        -1.127125         1.788797
 H        -1.229496         0.090474         1.887179
 H        -2.926227         1.023865        -0.000779
 H        -2.469637        -1.647762        -1.102096
 H        -1.310029        -0.703982        -2.127651
 H         0.771585        -2.502338         0.449043
 H        -0.516915         1.905160         0.712103
 H        -0.299247         1.585594        -1.054518
