19
Iteration:  1869charge 0 multiplicity 1
 C        -2.929487        -1.575892         1.383540
 C        -1.747427        -0.445526         1.230208
 C        -1.947192         0.417734        -0.078593
 C        -1.640467        -0.828757        -0.840349
 C        -0.727422        -1.146209         0.307244
 O        -0.126641        -2.364815         0.465183
 C         0.264043         0.009119         0.110604
 O         1.462389        -0.116961         0.214423
 C        -0.612782         1.204797        -0.185463
 H        -3.264749        -1.792592         0.407304
 H        -2.316578        -2.442682         1.867077
 H        -3.862031        -1.441700         1.971861
 H        -1.358799        -0.107665         2.178537
 H        -2.922093         0.869192        -0.062830
 H        -2.484432        -1.534186        -1.012675
 H        -1.270384        -0.693816        -1.888109
 H         0.773448        -2.152510         0.302565
 H        -0.403036         1.888095         0.588013
 H        -0.312218         1.610170        -1.207553
