19
Iteration:  2524
 C        -2.852331        -1.533118         1.459544
 C        -1.815902        -0.479491         1.101006
 C        -1.963828         0.412544        -0.176726
 C        -1.718491        -0.879612        -0.982742
 C        -0.698548        -1.197144         0.245194
 O        -0.107747        -2.317685         0.591036
 C         0.303321         0.007186         0.052029
 O         1.521153        -0.173794         0.209205
 C        -0.671176         1.259837         0.012059
 H        -2.597026        -1.830257         2.411624
 H        -3.927493        -0.986958         1.389579
 H        -2.815359        -2.429000         0.749003
 H        -1.384267        -0.045509         2.071125
 H        -2.921752         0.859427        -0.364017
 H        -2.543439        -1.642586        -1.087333
 H        -1.478475        -0.702419        -2.113819
 H         0.776445        -1.946234         0.628841
 H        -0.470725         1.700844         0.961372
 H        -0.383228         1.915975        -0.833356
