19
Iteration:  4909
 C        -2.936510        -1.434299         1.519508
 C        -1.767166        -0.567070         1.218505
 C        -2.042356         0.357036        -0.165379
 C        -1.554964        -0.886427        -0.910559
 C        -0.660546        -1.146337         0.296004
 O        -0.103688        -2.389582         0.460244
 C         0.261494        -0.014710         0.130194
 O         1.482142        -0.016589         0.243442
 C        -0.693184         1.146421        -0.210124
 H        -3.073331        -2.069889         0.607315
 H        -2.846641        -2.094980         2.425371
 H        -3.756750        -0.728515         1.681024
 H        -1.395633         0.013652         2.018328
 H        -2.951315         0.972649        -0.466676
 H        -2.344416        -1.502700        -1.047239
 H        -0.995068        -0.633025        -1.929919
 H         0.824740        -2.274689         0.550770
 H        -0.488514         1.730795         0.699401
 H        -0.446264         1.741561        -1.192044
