19
Iteration:  3860charge 0 multiplicity 1
 C        -3.089697        -1.395643         1.403332
 C        -1.904686        -0.557146         1.138365
 C        -1.976843         0.316680        -0.096684
 C        -1.578700        -0.893687        -0.953856
 C        -0.647321        -1.208471         0.341037
 O         0.013121        -2.299351         0.630819
 C         0.309980        -0.007884         0.065077
 O         1.520209        -0.069803         0.046062
 C        -0.636030         1.162505         0.004822
 H        -3.326505        -1.998422         0.408708
 H        -2.772155        -2.122087         2.211571
 H        -4.043923        -0.820249         1.475172
 H        -1.837087         0.015725         2.163901
 H        -2.793228         0.830684        -0.534410
 H        -2.361186        -1.584120        -1.059426
 H        -1.150561        -0.794652        -1.965239
 H         0.942074        -2.154969         0.751023
 H        -0.605831         1.744740         0.905636
 H        -0.433329         1.906520        -0.870435
