19
Iteration:  4504charge 0 multiplicity 1
 C        -2.961919        -1.393356         1.677422
 C        -1.870606        -0.527677         1.082945
 C        -2.036333         0.356675        -0.151147
 C        -1.592871        -0.889814        -1.002463
 C        -0.667049        -1.158978         0.190956
 O        -0.063263        -2.476160         0.436731
 C         0.310590         0.010290         0.168147
 O         1.540570        -0.037290         0.347621
 C        -0.699928         1.227649        -0.182582
 H        -3.398954        -2.396141         1.014925
 H        -2.590341        -1.955269         2.553016
 H        -3.825093        -0.743558         1.974334
 H        -1.416517         0.058139         1.866090
 H        -2.957440         0.869754        -0.407911
 H        -2.229263        -1.711804        -1.204602
 H        -1.178458        -0.512394        -1.984158
 H         0.849537        -2.386239         0.231005
 H        -0.415864         2.043038         0.472562
 H        -0.391792         1.564372        -1.318883
