19
Iteration:  2598
 C        -2.940132        -1.294810         1.620232
 C        -1.793290        -0.525305         1.146566
 C        -2.003537         0.284866        -0.154336
 C        -1.679260        -0.980640        -1.001577
 C        -0.633024        -1.207897         0.147661
 O        -0.107612        -2.507319         0.280681
 C         0.333136         0.060163         0.141683
 O         1.503742         0.099617         0.470149
 C        -0.640200         1.155521        -0.152136
 H        -2.610425        -2.309869         1.437320
 H        -3.190873        -1.046409         2.662849
 H        -3.793380        -1.000956         0.982000
 H        -1.254546        -0.027597         1.893723
 H        -2.934066         0.750146        -0.381062
 H        -2.470273        -1.689595        -0.781536
 H        -1.222852        -1.036815        -2.036488
 H         0.623506        -2.344339         0.828697
 H        -0.803732         1.849143         0.689934
 H        -0.537128         1.591176        -1.147662
