19
Iteration:  2725charge 0 multiplicity 1
 C        -3.128869        -1.413606         1.471273
 C        -1.894034        -0.577957         1.146044
 C        -1.989995         0.276244        -0.138937
 C        -1.439342        -0.900756        -1.019612
 C        -0.646747        -1.158000         0.355385
 O        -0.098626        -2.447104         0.679502
 C         0.348722         0.015039         0.117917
 O         1.577694         0.070681         0.027463
 C        -0.714598         1.193671        -0.060665
 H        -3.963603        -1.242148         0.688124
 H        -2.812415        -2.382261         1.268732
 H        -3.505817        -1.279831         2.454270
 H        -1.591913        -0.076513         2.033260
 H        -2.890161         0.919887        -0.377138
 H        -2.092078        -1.775469        -1.028662
 H        -1.223282        -0.731419        -2.042123
 H         0.846295        -2.227672         0.763028
 H        -0.605940         2.046920         0.608213
 H        -0.377804         1.669252        -0.993023
