19
Iteration:  1751
 C        -2.957228        -1.471524         1.565873
 C        -1.764338        -0.514173         1.231111
 C        -1.954231         0.473102         0.022204
 C        -1.697564        -0.896047        -0.930534
 C        -0.704267        -1.180038         0.184394
 O         0.004212        -2.402370         0.210672
 C         0.271959         0.009041         0.117314
 O         1.438781        -0.116352         0.498733
 C        -0.605470         1.192470        -0.362058
 H        -3.259523        -2.214532         0.934808
 H        -2.777275        -1.819532         2.603343
 H        -3.872247        -0.859868         1.790881
 H        -1.337067        -0.114212         2.245135
 H        -2.901749         0.987489        -0.023440
 H        -2.574098        -1.576537        -1.070943
 H        -1.289919        -0.649703        -1.945638
 H         0.861524        -2.216322         0.548887
 H        -0.390403         2.092551         0.226373
 H        -0.743493         1.426750        -1.459869
