19
Iteration:  4344
 C        -3.003840        -1.371822         1.632859
 C        -1.866377        -0.499634         1.098452
 C        -2.003039         0.388509        -0.154080
 C        -1.583899        -0.931380        -1.034954
 C        -0.659168        -1.243731         0.218646
 O        -0.062478        -2.541315         0.414809
 C         0.346599        -0.000104         0.221353
 O         1.544565         0.055952         0.332231
 C        -0.707553         1.215477        -0.184064
 H        -3.328365        -2.034427         0.830168
 H        -2.528530        -2.096106         2.414428
 H        -4.009387        -0.851150         1.909703
 H        -1.534065         0.134844         1.999122
 H        -2.902436         1.063136        -0.349501
 H        -2.351349        -1.661207        -1.153693
 H        -1.054737        -0.757854        -2.004977
 H         0.897682        -2.317252         0.574236
 H        -0.790386         2.100728         0.551830
 H        -0.515112         1.607403        -1.160624
