19
Iteration:  1956charge 0 multiplicity 1
 C        -3.046656        -1.461909         1.469136
 C        -1.760975        -0.550534         1.200815
 C        -1.925445         0.339058        -0.027645
 C        -1.554568        -0.845464        -0.888916
 C        -0.645706        -1.172939         0.350739
 O        -0.138138        -2.481624         0.359343
 C         0.306114         0.062098         0.139698
 O         1.532215        -0.019655         0.084191
 C        -0.718083         1.202642        -0.077322
 H        -3.230613        -2.050395         0.588398
 H        -3.138802        -2.164380         2.423554
 H        -3.859769        -0.717357         1.561292
 H        -1.416933         0.069360         2.139219
 H        -2.797747         0.954625        -0.152886
 H        -2.397592        -1.553870        -0.934011
 H        -1.081606        -0.557697        -1.844999
 H         0.843855        -2.456784         0.632667
 H        -0.659395         1.946941         0.659989
 H        -0.553500         1.783985        -1.033450
