19
Iteration:  2596
 C        -2.961957        -1.290168         1.625717
 C        -1.791857        -0.536607         1.142703
 C        -1.989161         0.268257        -0.150203
 C        -1.665808        -0.965408        -1.008369
 C        -0.632973        -1.198517         0.165236
 O        -0.108565        -2.507027         0.280188
 C         0.333620         0.044764         0.138370
 O         1.498156         0.101502         0.463448
 C        -0.635555         1.166224        -0.151678
 H        -2.576199        -2.375502         1.476619
 H        -3.160087        -1.052999         2.600268
 H        -3.817698        -1.066699         1.018037
 H        -1.255039         0.052106         1.935909
 H        -2.932537         0.764106        -0.429974
 H        -2.460285        -1.697492        -0.804692
 H        -1.320867        -0.985151        -2.049299
 H         0.650129        -2.365375         0.826921
 H        -0.778988         1.919478         0.683629
 H        -0.588735         1.547813        -1.158518
