19
Iteration:   446
 C        -3.050017        -1.304510         1.634895
 C        -1.838888        -0.562012         1.145381
 C        -1.940868         0.326644        -0.127409
 C        -1.498399        -0.817609        -1.036732
 C        -0.633685        -1.224075         0.295550
 O        -0.015176        -2.451849         0.311362
 C         0.249939         0.027227         0.144556
 O         1.470822        -0.057780         0.229554
 C        -0.720294         1.138899        -0.029203
 H        -3.738162        -1.642496         0.812084
 H        -2.789876        -2.120932         2.342245
 H        -3.739731        -0.711041         2.234878
 H        -1.384350        -0.153256         2.062879
 H        -2.879770         0.817567        -0.331813
 H        -2.324608        -1.571310        -1.257279
 H        -0.919896        -0.550246        -2.006723
 H         0.959777        -2.355341         0.659637
 H        -0.880608         1.962290         0.645630
 H        -0.536764         1.573335        -1.005669
