19
Iteration:  3259
 C        -2.997774        -1.419700         1.504896
 C        -1.811034        -0.546235         1.095063
 C        -1.944829         0.373461        -0.110262
 C        -1.590577        -0.869554        -0.992608
 C        -0.633572        -1.206513         0.293252
 O        -0.080029        -2.482283         0.621159
 C         0.269465         0.016946         0.074714
 O         1.490520         0.077892         0.180088
 C        -0.677281         1.128467        -0.097591
 H        -3.494420        -1.836747         0.506732
 H        -2.759087        -2.183452         2.215699
 H        -3.613677        -0.742149         2.085358
 H        -1.356037        -0.106630         1.944371
 H        -2.869581         0.809961        -0.404229
 H        -2.481417        -1.513026        -1.091300
 H        -1.125138        -0.769897        -1.950885
 H         0.803297        -2.416254         0.287436
 H        -0.705158         1.950865         0.618828
 H        -0.471413         1.668700        -1.095384
