19
Iteration:  2091
 C        -2.918231        -1.384720         1.585111
 C        -1.663793        -0.540261         1.170362
 C        -1.967636         0.286047        -0.072298
 C        -1.739962        -0.878996        -0.909443
 C        -0.639366        -1.189918         0.193216
 O        -0.151074        -2.459450         0.221558
 C         0.309311         0.044517         0.072649
 O         1.501204         0.043053         0.343334
 C        -0.646923         1.184921        -0.102053
 H        -3.618249        -1.461876         0.656922
 H        -2.792169        -2.391165         1.776344
 H        -3.505750        -0.860267         2.415259
 H        -1.268243         0.024051         2.086868
 H        -2.942777         0.832716         0.037281
 H        -2.528216        -1.619461        -1.091374
 H        -1.075128        -0.756354        -1.796012
 H         0.330643        -2.707039         1.064275
 H        -0.549105         1.821686         0.769499
 H        -0.583562         1.636791        -1.077365
