19
Iteration:  2940charge 0 multiplicity 1
 C        -2.923727        -1.464236         1.628030
 C        -1.882688        -0.456823         1.024880
 C        -1.951624         0.367269        -0.280849
 C        -1.583524        -1.007620        -0.977735
 C        -0.656766        -1.165151         0.133555
 O        -0.054456        -2.346869         0.573998
 C         0.245263        -0.061919         0.197147
 O         1.466727         0.006982         0.398708
 C        -0.665340         1.187192        -0.225414
 H        -3.416884        -0.848559         2.319477
 H        -3.594102        -1.774863         0.735518
 H        -2.508495        -2.375353         2.117829
 H        -1.322093         0.085129         1.841900
 H        -2.924381         0.885717        -0.527741
 H        -2.488683        -1.569429        -0.793992
 H        -1.287908        -1.214613        -2.020656
 H         0.883693        -2.111206         0.495931
 H        -0.750881         1.953971         0.545057
 H        -0.300261         1.738049        -1.126577
