19
Iteration:  2581
 C        -3.025632        -1.430608         1.664981
 C        -1.772844        -0.530617         1.121976
 C        -1.941024         0.368128        -0.145758
 C        -1.569883        -0.883961        -0.999085
 C        -0.594999        -1.228581         0.209862
 O        -0.109354        -2.463686         0.321613
 C         0.284870         0.004306         0.151508
 O         1.470288         0.069910         0.398339
 C        -0.699126         1.148055        -0.231642
 H        -2.922972        -2.511799         1.945243
 H        -3.336041        -0.882465         2.643501
 H        -3.956561        -1.361756         1.045323
 H        -1.452772         0.087631         2.074856
 H        -2.932343         0.915892        -0.191784
 H        -2.360499        -1.652101        -1.042266
 H        -1.103706        -0.536703        -1.949888
 H         0.794451        -2.512917         0.679028
 H        -0.461829         1.999770         0.391292
 H        -0.351700         1.506620        -1.240407
