19
Iteration:  2298
 C        -2.894787        -1.439816         1.774928
 C        -1.845680        -0.542192         1.202546
 C        -1.978672         0.449524        -0.151681
 C        -1.658158        -0.828086        -0.997671
 C        -0.687384        -1.142733         0.184028
 O        -0.110528        -2.402105         0.158482
 C         0.263781        -0.034267         0.148390
 O         1.475944        -0.107279         0.328248
 C        -0.598359         1.142694        -0.059225
 H        -3.036281        -2.432656         1.184933
 H        -2.586222        -1.801182         2.701360
 H        -3.913761        -0.964468         1.819288
 H        -1.459045         0.054456         2.041217
 H        -2.881415         1.066119        -0.385602
 H        -2.138430        -1.797095        -1.105115
 H        -1.074325        -0.550628        -1.862989
 H         0.891822        -2.146090         0.282902
 H        -0.534288         2.025270         0.567403
 H        -0.462471         1.545997        -1.112519
