19
Iteration:  1176
 C        -2.822450        -1.449392         1.778251
 C        -1.865754        -0.634668         1.038896
 C        -2.015332         0.459802        -0.126641
 C        -1.562669        -0.712192        -1.084996
 C        -0.704446        -1.180118         0.142917
 O        -0.097121        -2.438939         0.390129
 C         0.254431        -0.030491         0.099684
 O         1.443438        -0.095871         0.417674
 C        -0.670406         1.190518        -0.152413
 H        -3.551824        -2.144775         1.013001
 H        -2.169424        -2.160608         2.405155
 H        -3.487756        -0.773921         2.344678
 H        -1.237845        -0.162560         1.804153
 H        -2.977576         0.877871        -0.430890
 H        -2.271037        -1.510125        -1.309664
 H        -1.260630        -0.481831        -2.202402
 H         0.836893        -2.211301         0.695975
 H        -0.548445         1.931954         0.682418
 H        -0.374141         1.581764        -1.134638
