19
Iteration:  3923
 C        -3.019587        -1.410226         1.442172
 C        -1.911179        -0.545819         1.145991
 C        -2.024567         0.369615        -0.103748
 C        -1.597662        -0.928667        -0.958904
 C        -0.599927        -1.181348         0.230510
 O        -0.074489        -2.418182         0.604119
 C         0.336339        -0.012488         0.132094
 O         1.548003         0.007434         0.134176
 C        -0.655268         1.186427        -0.081048
 H        -3.245087        -2.230747         0.756835
 H        -2.755201        -2.086773         2.343291
 H        -4.006005        -0.935758         1.508870
 H        -1.493361         0.083202         1.925887
 H        -2.894543         1.004924        -0.438007
 H        -2.287948        -1.709036        -1.174882
 H        -1.026687        -0.602870        -1.845871
 H         0.907108        -2.314066         0.770089
 H        -0.764504         1.843653         0.808065
 H        -0.479067         1.902354        -1.010286
