19
Iteration:  3252charge 0 multiplicity 1
 C        -3.017055        -1.384699         1.498916
 C        -1.784111        -0.584996         1.139894
 C        -1.982842         0.328166        -0.073180
 C        -1.585154        -0.932931        -1.014226
 C        -0.660254        -1.205706         0.206994
 O        -0.084725        -2.471170         0.606853
 C         0.298281         0.030797         0.052368
 O         1.473698         0.082703         0.220309
 C        -0.644034         1.177839        -0.096227
 H        -3.537362        -1.877428         0.748921
 H        -2.687029        -2.107221         2.249469
 H        -3.728596        -0.617017         1.891859
 H        -1.237213        -0.138461         2.035784
 H        -2.851976         0.882270        -0.496417
 H        -2.449181        -1.609128        -1.091984
 H        -1.206091        -0.537893        -1.992529
 H         0.874859        -2.255168         0.454388
 H        -0.405086         1.986237         0.644921
 H        -0.627726         1.459175        -1.108462
