19
Iteration:  4091charge 0 multiplicity 1
 C        -2.943181        -1.502724         1.496820
 C        -1.819883        -0.464700         1.134418
 C        -1.947001         0.413845        -0.107704
 C        -1.552360        -0.889921        -1.018746
 C        -0.627421        -1.175118         0.276576
 O        -0.175808        -2.531631         0.550391
 C         0.290760         0.040388         0.083119
 O         1.505797         0.046412         0.228573
 C        -0.673066         1.172137        -0.096256
 H        -3.228725        -2.290753         0.695167
 H        -2.647254        -1.989687         2.409343
 H        -3.996050        -1.046766         1.611885
 H        -1.548086         0.040675         2.096464
 H        -2.664338         1.150424        -0.312932
 H        -2.404940        -1.594334        -1.047186
 H        -1.129183        -0.808427        -1.961081
 H         0.755496        -2.417998         0.345371
 H        -0.779298         1.939141         0.749384
 H        -0.504317         1.767499        -1.125129
