19
Iteration:   333charge 0 multiplicity 1
 C        -2.826533        -1.444332         1.651661
 C        -1.826148        -0.506148         1.058821
 C        -1.914477         0.408401        -0.179250
 C        -1.663606        -0.886557        -1.063705
 C        -0.724133        -1.185727         0.145189
 O        -0.092453        -2.499866         0.355266
 C         0.248002        -0.043360         0.158906
 O         1.451917        -0.001828         0.351994
 C        -0.643503         1.204906        -0.002764
 H        -3.317909        -2.126347         0.950228
 H        -2.345952        -1.834767         2.532061
 H        -3.603417        -0.692098         2.005638
 H        -1.336031         0.067414         1.889920
 H        -2.819371         0.989144        -0.384911
 H        -2.675738        -1.300734        -1.226919
 H        -1.025112        -0.812838        -2.049085
 H         0.681720        -2.353976         0.843178
 H        -0.749020         1.830926         0.910979
 H        -0.491334         1.801325        -0.879157
