19
Iteration:  4016charge 0 multiplicity 1
 C        -2.794691        -1.341041         1.669384
 C        -1.771128        -0.494536         1.054023
 C        -1.937643         0.350962        -0.252671
 C        -1.727168        -0.995775        -1.053028
 C        -0.642785        -1.221948         0.153034
 O         0.010880        -2.370083         0.322130
 C         0.186423        -0.004183         0.151715
 O         1.328242        -0.044267         0.547200
 C        -0.615500         1.194813        -0.164203
 H        -3.540216        -1.676999         0.906764
 H        -2.447247        -2.239128         2.089551
 H        -3.413603        -0.705316         2.320547
 H        -1.346418         0.090773         1.910766
 H        -2.830946         0.967775        -0.285699
 H        -2.597675        -1.706900        -0.888880
 H        -1.348588        -1.110877        -2.042670
 H         0.628073        -2.256561         1.043579
 H        -0.580075         1.989158         0.619708
 H        -0.453419         1.531449        -1.144764
