19
Iteration:   363charge 0 multiplicity 1
 C        -2.731178        -1.607108         1.693153
 C        -1.827496        -0.473873         1.134703
 C        -2.038484         0.352102        -0.183511
 C        -1.612360        -0.770553        -1.063742
 C        -0.673801        -1.058609         0.154964
 O        -0.236578        -2.368370         0.363152
 C         0.300041         0.013276         0.142538
 O         1.467787        -0.163719         0.436073
 C        -0.591942         1.217259        -0.192504
 H        -3.179467        -2.368797         1.027190
 H        -2.342163        -2.350395         2.453028
 H        -3.503784        -0.969567         2.083610
 H        -1.531655         0.232874         1.949438
 H        -3.020541         0.912267        -0.469184
 H        -2.422133        -1.546595        -1.348848
 H        -1.071614        -0.523104        -1.920949
 H         0.519594        -2.487917         1.060443
 H        -0.658405         1.981741         0.562798
 H        -0.523576         1.676840        -1.273300
