19
Iteration:  3219charge 0 multiplicity 1
 C        -2.952539        -1.340153         1.573628
 C        -1.762052        -0.501142         1.172137
 C        -2.003524         0.325701        -0.197674
 C        -1.634946        -0.900558        -0.926812
 C        -0.662523        -1.199988         0.235259
 O         0.036827        -2.431307         0.329891
 C         0.273081         0.019247         0.133244
 O         1.455638        -0.045507         0.406249
 C        -0.729873         1.141560        -0.215630
 H        -3.192580        -2.207294         1.045421
 H        -2.820829        -1.689659         2.592060
 H        -3.881291        -0.713206         1.643256
 H        -1.478294         0.057203         2.120603
 H        -2.813963         0.983381        -0.536661
 H        -2.474596        -1.639283        -0.936574
 H        -1.355835        -0.687536        -1.977322
 H         0.852250        -2.422429         0.923185
 H        -0.531558         2.040399         0.415235
 H        -0.643160         1.481547        -1.218779
