19
Iteration:   493charge 0 multiplicity 1
 C        -3.009424        -1.446161         1.491705
 C        -1.862022        -0.561830         1.140016
 C        -1.963235         0.400381        -0.080501
 C        -1.615671        -0.813705        -0.961849
 C        -0.696610        -1.176519         0.251284
 O        -0.052507        -2.371188         0.513734
 C         0.338944        -0.029580         0.105532
 O         1.583340        -0.088739         0.124182
 C        -0.693780         1.177892        -0.049349
 H        -3.363810        -2.151597         0.740213
 H        -2.870388        -1.971831         2.456964
 H        -3.973319        -1.021425         1.749434
 H        -1.562062        -0.016696         2.029755
 H        -2.995863         0.852179        -0.244950
 H        -2.508643        -1.555717        -1.020498
 H        -1.185470        -0.681134        -1.912761
 H         0.943680        -2.145898         0.255036
 H        -0.503284         1.561197         0.923907
 H        -0.579127         1.996759        -0.809470
