19
Iteration:  2287
 C        -2.975574        -1.490565         1.764189
 C        -1.832457        -0.445244         1.173424
 C        -1.942479         0.373882        -0.117563
 C        -1.634525        -0.847325        -1.019967
 C        -0.721889        -1.149315         0.158276
 O        -0.048558        -2.333351         0.171515
 C         0.293139         0.000536         0.186890
 O         1.504252        -0.170497         0.281798
 C        -0.646076         1.155154        -0.073417
 H        -3.141997        -2.486755         1.202656
 H        -2.650397        -1.678453         2.732206
 H        -3.979336        -1.041470         1.998690
 H        -1.424841         0.080850         2.050526
 H        -2.854596         1.004716        -0.230044
 H        -2.605024        -1.406272        -1.039995
 H        -1.267299        -0.836634        -2.033382
 H         0.948106        -2.150153         0.496319
 H        -0.669176         1.804190         0.805015
 H        -0.260730         1.717154        -0.969326
