19
Iteration:   789
 C        -3.062524        -1.404372         1.425408
 C        -1.765234        -0.601747         1.211874
 C        -1.956819         0.360854        -0.032580
 C        -1.689191        -0.808749        -1.020083
 C        -0.657205        -1.225012         0.284600
 O         0.048912        -2.409129         0.504509
 C         0.279574        -0.009157         0.083347
 O         1.487194        -0.040889         0.111736
 C        -0.690961         1.164804         0.012450
 H        -3.568540        -1.925848         0.629325
 H        -3.120861        -2.036643         2.349203
 H        -3.701700        -0.584986         1.781697
 H        -1.379145        -0.122913         2.162767
 H        -2.851154         0.951729        -0.195077
 H        -2.539055        -1.468555        -1.113360
 H        -1.141496        -0.479794        -1.947463
 H         1.043555        -2.334181         0.386203
 H        -0.511640         1.998294         0.642487
 H        -0.428596         1.591513        -0.996562
