19
Iteration:  3702charge 0 multiplicity 1
 C        -3.024493        -1.347776         1.619238
 C        -1.820259        -0.473556         1.151422
 C        -1.942846         0.332646        -0.126713
 C        -1.635368        -0.985649        -0.989591
 C        -0.623297        -1.217647         0.170253
 O        -0.054967        -2.438806         0.305177
 C         0.284679         0.000696         0.187830
 O         1.479545         0.083994         0.423421
 C        -0.626789         1.091219        -0.239142
 H        -3.335314        -2.117951         0.917485
 H        -2.794980        -1.750514         2.686408
 H        -4.011770        -0.847191         1.845068
 H        -1.334047         0.072282         2.092802
 H        -2.842384         0.990710        -0.178745
 H        -2.499247        -1.731593        -1.042249
 H        -1.383911        -0.666170        -1.941154
 H         0.913958        -2.463009         0.615464
 H        -0.521134         2.028604         0.474700
 H        -0.454404         1.476022        -1.269433
