19
Iteration:  4100charge 0 multiplicity 1
 C        -2.908890        -1.483995         1.430872
 C        -1.880722        -0.443582         1.088030
 C        -1.988320         0.403544        -0.103050
 C        -1.548359        -0.908517        -0.967854
 C        -0.619113        -1.170716         0.222668
 O        -0.198847        -2.413124         0.579907
 C         0.303498        -0.023263         0.105274
 O         1.508485         0.010746         0.162632
 C        -0.669118         1.159510        -0.014050
 H        -2.894151        -2.350185         0.629924
 H        -2.618991        -1.971451         2.373632
 H        -3.924262        -1.100866         1.765810
 H        -1.368093        -0.056469         1.963823
 H        -2.911479         0.901238        -0.279819
 H        -2.371010        -1.621066        -1.066589
 H        -0.980901        -0.844783        -1.922537
 H         0.746383        -2.458983         0.702313
 H        -0.570396         1.778334         0.890671
 H        -0.467553         1.885062        -0.942253
