19
Iteration:  2347charge 0 multiplicity 1
 C        -2.790026        -1.482870         1.555896
 C        -1.633336        -0.551016         1.111953
 C        -2.038753         0.422014        -0.028118
 C        -1.752016        -0.839700        -0.976156
 C        -0.667378        -1.164931         0.075287
 O        -0.276522        -2.476597         0.346329
 C         0.329445         0.010456         0.052188
 O         1.474036         0.051143         0.447306
 C        -0.572317         1.135901        -0.152122
 H        -3.462389        -1.829498         0.794546
 H        -2.522933        -2.491877         2.152075
 H        -3.394927        -0.798394         2.168858
 H        -1.155830        -0.049535         2.042115
 H        -3.093700         0.650505         0.012687
 H        -2.650660        -1.421091        -0.783856
 H        -1.392067        -0.652804        -2.019579
 H         0.571859        -2.355144         0.668036
 H        -0.293491         1.747255         0.724708
 H        -0.410578         1.764957        -0.990444
