19
Iteration:  3987
 C        -2.801817        -1.471181         1.731722
 C        -1.837012        -0.480406         1.117527
 C        -2.010025         0.418158        -0.271875
 C        -1.620373        -0.845031        -1.080182
 C        -0.655614        -1.171909         0.174531
 O        -0.138018        -2.402368         0.434422
 C         0.293110        -0.037444         0.173068
 O         1.476629        -0.047766         0.529640
 C        -0.741854         1.158231        -0.325532
 H        -3.388767        -1.852485         0.942610
 H        -2.316182        -2.456704         2.099648
 H        -3.403977        -0.914606         2.418405
 H        -1.421160        -0.059925         2.025429
 H        -2.896851         1.173147        -0.265661
 H        -2.229079        -1.738977        -1.301285
 H        -0.871091        -0.736202        -1.970071
 H         0.849593        -2.409844         0.492064
 H        -0.745298         1.958497         0.416693
 H        -0.652041         1.509860        -1.367960
