19
Iteration:  4739charge 0 multiplicity 1
 C        -3.038957        -1.412759         1.534632
 C        -1.804032        -0.579251         1.233019
 C        -1.950599         0.340749        -0.191933
 C        -1.542357        -0.899204        -1.031803
 C        -0.662223        -1.137675         0.276777
 O        -0.108362        -2.388507         0.523974
 C         0.292973         0.007447         0.210836
 O         1.513795        -0.004268         0.146446
 C        -0.678613         1.142101        -0.165710
 H        -3.428892        -1.943602         0.715153
 H        -2.576446        -2.024901         2.341353
 H        -3.936674        -0.899231         1.960717
 H        -1.440763        -0.049135         2.040501
 H        -2.882920         0.906911        -0.348866
 H        -2.216655        -1.810829        -1.202213
 H        -1.207180        -0.835347        -1.989160
 H         0.909473        -2.135081         0.587436
 H        -0.811997         1.796393         0.809975
 H        -0.421666         1.856090        -0.893570
