19
Iteration:  3095charge 0 multiplicity 1
 C        -3.004419        -1.494769         1.586840
 C        -1.896797        -0.533909         1.167678
 C        -1.982619         0.365284        -0.271908
 C        -1.638162        -0.975840        -0.925533
 C        -0.691056        -1.119351         0.323797
 O        -0.080749        -2.374674         0.443716
 C         0.344131         0.044936         0.203451
 O         1.560932         0.050259         0.300099
 C        -0.613554         1.124420        -0.239432
 H        -3.824693        -1.488731         0.769847
 H        -2.673690        -2.524887         1.529482
 H        -3.437457        -1.254059         2.535816
 H        -1.638496         0.087316         2.059365
 H        -2.808374         0.956631        -0.670262
 H        -2.394005        -1.763824        -0.803658
 H        -1.171093        -0.921328        -1.914093
 H         0.838874        -2.249716         0.275972
 H        -0.517264         1.892822         0.530412
 H        -0.398331         1.645340        -1.207242
