19
Iteration:  4539
 C        -2.897955        -1.318691         1.580880
 C        -1.677889        -0.520914         1.172847
 C        -2.003824         0.376732        -0.138590
 C        -1.721737        -0.999477        -0.938190
 C        -0.724010        -1.245631         0.229910
 O         0.013090        -2.389338         0.292337
 C         0.260421        -0.015459         0.056531
 O         1.405642        -0.033258         0.524321
 C        -0.638872         1.174693        -0.273475
 H        -3.322449        -1.903125         0.603406
 H        -2.676180        -1.927408         2.461471
 H        -3.759490        -0.633341         1.869572
 H        -1.327129         0.043989         2.070782
 H        -2.974950         0.897654        -0.402788
 H        -2.511426        -1.765854        -0.944142
 H        -1.353415        -0.694519        -2.007584
 H         0.785921        -2.221596         0.811990
 H        -0.418784         1.852115         0.598227
 H        -0.427929         1.807716        -1.264796
