19
Iteration:  4376charge 0 multiplicity 1
 C        -3.036175        -1.333587         1.448322
 C        -1.815044        -0.616619         1.107066
 C        -1.955110         0.343380        -0.105528
 C        -1.536762        -0.956504        -0.987277
 C        -0.673416        -1.181798         0.296208
 O        -0.024549        -2.357040         0.544187
 C         0.269489        -0.017479         0.079728
 O         1.487488        -0.048991         0.158752
 C        -0.707624         1.167052        -0.017245
 H        -3.504497        -1.634271         0.549949
 H        -2.768119        -2.175886         2.144977
 H        -3.720546        -0.707930         2.124212
 H        -1.321680         0.015340         1.953055
 H        -2.855489         0.983894        -0.323927
 H        -2.310780        -1.652839        -1.276858
 H        -0.889015        -0.726982        -1.943424
 H         0.835742        -1.955681         0.763172
 H        -0.852534         1.773534         0.897582
 H        -0.695580         1.831261        -0.852810
