19
Iteration:  2850charge 0 multiplicity 1
 C        -2.886969        -1.381488         1.612445
 C        -1.783959        -0.365957         1.045130
 C        -1.964912         0.252744        -0.225958
 C        -1.538290        -1.001452        -0.988460
 C        -0.560975        -1.182214         0.183056
 O        -0.230708        -2.495860         0.452197
 C         0.290974         0.042315         0.131241
 O         1.428850         0.124927         0.489011
 C        -0.704632         1.132859        -0.231942
 H        -3.297831        -0.939959         2.485676
 H        -3.682573        -1.735886         0.846944
 H        -2.416099        -2.397622         1.820856
 H        -1.311801         0.111758         1.944360
 H        -2.884029         0.754636        -0.411765
 H        -2.146246        -1.917477        -0.928595
 H        -1.151603        -0.764335        -1.956461
 H         0.646893        -2.626462         0.880808
 H        -0.741333         2.088791         0.365136
 H        -0.539520         1.519286        -1.268839
