19
Iteration:  4723charge 0 multiplicity 1
 C        -3.046782        -1.424490         1.534519
 C        -1.884254        -0.500392         1.044243
 C        -1.989164         0.354189        -0.151256
 C        -1.574377        -0.946502        -0.934095
 C        -0.617112        -1.238822         0.253067
 O        -0.002640        -2.420224         0.548708
 C         0.277994         0.033206         0.112737
 O         1.493850        -0.017995         0.109304
 C        -0.648961         1.226202         0.027747
 H        -3.539304        -2.039907         0.678634
 H        -2.866688        -2.043226         2.423210
 H        -3.866536        -0.754934         1.783164
 H        -1.541332         0.086532         2.008368
 H        -2.895620         0.904808        -0.454222
 H        -2.462479        -1.534738        -0.970300
 H        -1.045074        -0.949483        -2.016868
 H         0.964038        -2.197583         0.711070
 H        -0.592350         1.932289         0.784635
 H        -0.352097         1.678594        -0.981356
