19
Iteration:  4786
 C        -2.816814        -1.525426         1.565134
 C        -1.774799        -0.512273         1.105913
 C        -1.940973         0.376971        -0.203986
 C        -1.747559        -0.883299        -0.995418
 C        -0.713065        -1.129673         0.235354
 O        -0.136775        -2.442132         0.529940
 C         0.284051         0.019223         0.149630
 O         1.471738         0.018084         0.371801
 C        -0.618732         1.155110        -0.233901
 H        -3.445365        -1.851040         0.655838
 H        -2.407843        -2.312463         2.159287
 H        -3.589206        -0.989952         2.103928
 H        -1.359984         0.068897         1.922318
 H        -2.859933         0.883565        -0.298848
 H        -2.573116        -1.464257        -1.233595
 H        -1.316919        -0.810323        -2.049942
 H         0.862172        -2.242525         0.656190
 H        -0.545433         1.930422         0.549660
 H        -0.325828         1.677940        -1.218646
