19
Iteration:  1761charge 0 multiplicity 1
 C        -2.952934        -1.403580         1.661451
 C        -1.863092        -0.553284         1.129837
 C        -1.973496         0.371809        -0.050453
 C        -1.710693        -0.825481        -0.896640
 C        -0.664988        -1.177038         0.156755
 O        -0.015019        -2.346011         0.162195
 C         0.304822        -0.049104         0.182419
 O         1.489992        -0.093439         0.494194
 C        -0.645317         1.127686        -0.277658
 H        -3.284478        -2.179935         1.068157
 H        -2.612546        -1.938254         2.615342
 H        -3.812100        -0.725213         1.774890
 H        -1.398045         0.066690         2.026048
 H        -2.810706         1.031027        -0.173026
 H        -2.430672        -1.693819        -0.892668
 H        -1.233241        -0.660925        -1.918150
 H         0.868370        -2.116720         0.487054
 H        -0.376787         2.059393         0.220370
 H        -0.574917         1.407189        -1.439337
