19
Iteration:  2888
 C        -3.008659        -1.361278         1.620437
 C        -1.730561        -0.546824         1.083291
 C        -1.925421         0.312207        -0.192734
 C        -1.718178        -1.012565        -0.990611
 C        -0.611021        -1.207771         0.129778
 O        -0.011200        -2.462072         0.405861
 C         0.291044         0.042814         0.121295
 O         1.377302         0.148185         0.605828
 C        -0.602230         1.148426        -0.371710
 H        -3.248889        -0.993876         2.666853
 H        -3.871398        -1.306276         0.986843
 H        -2.699556        -2.345247         1.884449
 H        -1.186413        -0.042156         1.886250
 H        -2.846939         0.953752        -0.367069
 H        -2.548183        -1.707773        -0.883234
 H        -1.462492        -0.936833        -2.098023
 H         0.467635        -2.302436         1.316974
 H        -0.490088         2.020160         0.215225
 H        -0.441858         1.299271        -1.450293
