19
Iteration:  3030charge 0 multiplicity 1
 C        -3.088455        -1.496857         1.404014
 C        -1.971705        -0.531574         1.095487
 C        -2.016121         0.331908        -0.102039
 C        -1.525274        -0.907138        -0.934354
 C        -0.645676        -1.143659         0.357215
 O         0.010700        -2.321929         0.773589
 C         0.312144         0.013210         0.034840
 O         1.545194        -0.019552        -0.001004
 C        -0.613492         1.167713        -0.047170
 H        -4.043403        -1.069871         0.947301
 H        -2.930730        -2.462976         1.017331
 H        -3.370427        -1.621291         2.403983
 H        -1.751512         0.063213         2.037220
 H        -2.736946         0.944256        -0.651762
 H        -2.334846        -1.651473        -0.941063
 H        -1.110493        -0.875961        -1.968034
 H         0.849943        -2.478840         0.363224
 H        -0.566022         1.749155         0.828688
 H        -0.444193         1.782178        -0.948212
