19
Iteration:  4543charge 0 multiplicity 1
 C        -2.902636        -1.319706         1.556323
 C        -1.718259        -0.518773         1.173693
 C        -2.016716         0.396863        -0.114884
 C        -1.732434        -1.013661        -0.977006
 C        -0.659366        -1.247160         0.231745
 O         0.003875        -2.418605         0.295025
 C         0.274615         0.005387         0.022571
 O         1.397884        -0.037981         0.545795
 C        -0.609478         1.195438        -0.282243
 H        -3.266793        -1.903538         0.862252
 H        -2.706236        -1.982432         2.421307
 H        -3.570167        -0.556609         1.954333
 H        -1.417138         0.044565         2.136140
 H        -2.950779         0.935481        -0.312184
 H        -2.589339        -1.776001        -0.916777
 H        -1.420360        -0.865605        -2.039083
 H         0.823034        -2.108325         0.812425
 H        -0.497741         1.919531         0.578798
 H        -0.592674         1.726448        -1.134726
