19
Iteration:    34
 C        -2.847468        -1.614467         1.486263
 C        -1.800713        -0.509145         1.273407
 C        -1.889044         0.435065         0.003458
 C        -1.684570        -0.810960        -0.827903
 C        -0.624320        -1.162178         0.177159
 O        -0.328899        -2.426757         0.295092
 C         0.310569         0.017547         0.156206
 O         1.512742         0.028157         0.296024
 C        -0.571851         1.193006        -0.230014
 H        -2.389337        -2.614016         1.616105
 H        -3.459197        -1.420153         2.362302
 H        -3.539291        -1.735906         0.686687
 H        -1.507824         0.017809         2.183616
 H        -2.797514         0.923068        -0.221033
 H        -2.545509        -1.385701        -0.879559
 H        -1.324887        -0.683102        -1.890955
 H         0.670260        -2.612540         0.460437
 H        -0.486693         2.155787         0.235700
 H        -0.410114         1.266276        -1.331776
