19
Iteration:  3565
 C        -3.125707        -1.408074         1.490001
 C        -1.909997        -0.563564         1.170293
 C        -1.956401         0.305760        -0.182570
 C        -1.455184        -0.858256        -0.938088
 C        -0.621681        -1.168228         0.289036
 O        -0.032893        -2.401791         0.593982
 C         0.296060        -0.006182         0.101683
 O         1.523617        -0.015976         0.080365
 C        -0.710449         1.175374        -0.086339
 H        -3.889643        -1.605210         0.603911
 H        -2.885639        -2.390219         1.972386
 H        -3.559568        -0.880003         2.342349
 H        -1.650656         0.052075         2.130322
 H        -2.849413         0.967045        -0.338917
 H        -2.133012        -1.770688        -1.135052
 H        -0.928393        -0.605386        -1.968405
 H         0.926515        -2.237100         0.866504
 H        -0.860613         1.846302         0.776515
 H        -0.350917         1.697371        -1.030836
