19
Iteration:  3842charge 0 multiplicity 1
 C        -3.045148        -1.507344         1.399203
 C        -1.776612        -0.536964         1.155890
 C        -1.966676         0.434246        -0.185972
 C        -1.600953        -0.898960        -0.967224
 C        -0.658195        -1.193625         0.277124
 O        -0.106151        -2.449901         0.678727
 C         0.300283         0.000118         0.141588
 O         1.496696         0.046405         0.099396
 C        -0.611187         1.197567        -0.113739
 H        -3.351063        -1.934552         0.451612
 H        -2.795586        -2.195218         2.146643
 H        -3.834297        -0.947910         1.901014
 H        -1.479179        -0.055073         2.053892
 H        -2.899817         1.036171        -0.077030
 H        -2.488965        -1.669045        -0.995794
 H        -1.009331        -1.080799        -1.954823
 H         0.789880        -2.141612         0.757134
 H        -0.650400         1.819928         0.836610
 H        -0.360355         1.798822        -0.913495
