19
Iteration:  1542charge 0 multiplicity 1
 C        -2.825564        -1.485248         1.700800
 C        -1.823688        -0.443018         0.981378
 C        -2.016265         0.398500        -0.266296
 C        -1.665614        -0.858620        -1.050968
 C        -0.573592        -1.208269         0.146989
 O        -0.260707        -2.523504         0.393742
 C         0.290457        -0.003111         0.175020
 O         1.505599         0.057981         0.311524
 C        -0.637772         1.169367         0.056576
 H        -3.181632        -2.273814         1.049353
 H        -1.966275        -1.957953         2.399001
 H        -3.794351        -0.980312         2.205429
 H        -1.440622         0.131785         1.855303
 H        -2.826106         1.061279        -0.632902
 H        -2.386083        -1.712631        -1.104098
 H        -1.136513        -0.579012        -2.029642
 H         0.611045        -2.458648         0.906665
 H        -0.750319         1.639727         0.990590
 H        -0.164727         1.856362        -0.713923
