19
Iteration:  3078
 C        -3.043902        -1.449846         1.466295
 C        -1.844818        -0.473816         1.106825
 C        -1.994239         0.338141        -0.128698
 C        -1.509593        -0.909811        -0.978860
 C        -0.652647        -1.149167         0.316970
 O         0.031009        -2.347092         0.579579
 C         0.254526        -0.016178         0.088958
 O         1.441369        -0.092785         0.224638
 C        -0.704193         1.187465        -0.191217
 H        -3.980794        -1.315476         0.998716
 H        -2.695835        -2.504771         1.583680
 H        -3.280218        -1.296198         2.566790
 H        -1.538857         0.070967         2.002481
 H        -2.956743         0.856682        -0.134975
 H        -2.268701        -1.694880        -1.191992
 H        -0.962322        -0.742406        -1.931195
 H         0.993780        -2.129328         0.679159
 H        -0.622095         1.936872         0.670082
 H        -0.441214         1.648410        -1.134256
