19
Iteration:  2704charge 0 multiplicity 1
 C        -2.912460        -1.449736         1.434217
 C        -1.741472        -0.495338         1.084063
 C        -1.979783         0.329363        -0.203291
 C        -1.543694        -0.994997        -0.962174
 C        -0.657625        -1.136827         0.296770
 O        -0.124065        -2.392258         0.657118
 C         0.242907         0.076968         0.125781
 O         1.462194        -0.024675         0.151421
 C        -0.675249         1.154428        -0.078657
 H        -3.776950        -1.416770         0.607262
 H        -2.684676        -2.453154         1.547491
 H        -3.405583        -1.082842         2.296787
 H        -1.634123         0.201945         1.962901
 H        -2.947899         0.839870        -0.460363
 H        -2.453170        -1.544357        -1.102031
 H        -1.179784        -0.902851        -1.970536
 H         0.921389        -2.461326         0.779106
 H        -0.687838         1.753384         0.876719
 H        -0.484180         2.043263        -0.693296
