19
Iteration:   773
 C        -3.093460        -1.379768         1.434976
 C        -1.801532        -0.612352         1.207465
 C        -1.997280         0.363029         0.079455
 C        -1.609246        -0.823308        -0.916564
 C        -0.668630        -1.202946         0.249316
 O        -0.016003        -2.397573         0.443725
 C         0.285107        -0.026016         0.117222
 O         1.512541        -0.018391         0.116066
 C        -0.618465         1.151335        -0.177321
 H        -3.160777        -1.811808         0.408924
 H        -2.764379        -2.069750         2.250051
 H        -4.044635        -0.867113         1.695910
 H        -1.418396        -0.194308         2.141798
 H        -2.948579         0.932053         0.175120
 H        -2.364440        -1.645714        -1.139243
 H        -1.061552        -0.441056        -1.754660
 H         0.816110        -2.100066         0.766826
 H        -0.492954         1.655364         0.840221
 H        -0.593946         1.669655        -1.141524
