19
Iteration:   445
 C        -3.046597        -1.306409         1.634365
 C        -1.842238        -0.564217         1.150539
 C        -1.940841         0.325469        -0.125001
 C        -1.507665        -0.823698        -1.038188
 C        -0.624110        -1.216442         0.283366
 O        -0.018809        -2.456162         0.317826
 C         0.251790         0.027251         0.133168
 O         1.472376        -0.054540         0.236756
 C        -0.719385         1.140522        -0.029723
 H        -3.736430        -1.647168         0.825481
 H        -2.841326        -2.125037         2.332426
 H        -3.744619        -0.705360         2.250162
 H        -1.376578        -0.137572         2.073163
 H        -2.858680         0.815551        -0.331542
 H        -2.294830        -1.568534        -1.266861
 H        -0.921797        -0.515435        -2.017949
 H         0.945389        -2.359811         0.633190
 H        -0.872997         1.981836         0.663148
 H        -0.536837         1.552044        -1.001678
