19
Iteration:  3712
 C        -2.993575        -1.334900         1.654249
 C        -1.802267        -0.528828         1.166109
 C        -1.937626         0.362652        -0.130670
 C        -1.658175        -0.944265        -0.962892
 C        -0.692329        -1.249115         0.171757
 O        -0.018768        -2.458860         0.291433
 C         0.273936         0.036176         0.161273
 O         1.446782         0.063318         0.477058
 C        -0.627776         1.129743        -0.258441
 H        -3.162974        -2.149398         0.962224
 H        -2.817493        -1.942828         2.552375
 H        -3.804461        -0.596040         1.688050
 H        -1.444968         0.070345         2.095663
 H        -2.909099         0.819895        -0.385182
 H        -2.624957        -1.520663        -1.036098
 H        -1.151148        -0.860071        -1.912644
 H         0.970799        -2.316435         0.368882
 H        -0.507770         2.204721         0.176304
 H        -0.276575         1.075848        -1.277171
