19
Iteration:  3424
 C        -2.922155        -1.332762         1.665666
 C        -1.725869        -0.619042         1.084571
 C        -2.000611         0.370183        -0.230416
 C        -1.637438        -0.946880        -0.998077
 C        -0.634136        -1.253397         0.111356
 O        -0.147324        -2.469547         0.397333
 C         0.310325         0.095714         0.131135
 O         1.474569         0.020353         0.479046
 C        -0.697350         1.205397        -0.193386
 H        -3.022974        -2.326625         1.075979
 H        -2.597115        -1.487866         2.624061
 H        -3.854526        -0.857477         1.884190
 H        -1.296235         0.047931         1.832509
 H        -2.953695         0.881811        -0.370464
 H        -2.317254        -1.757989        -1.221241
 H        -1.097617        -0.915529        -1.927055
 H         0.632603        -2.158600         0.880700
 H        -0.606674         1.915270         0.677720
 H        -0.571607         1.727061        -1.189453
