19
Iteration:  4353charge 0 multiplicity 1
 C        -3.066818        -1.417762         1.597038
 C        -1.852416        -0.523265         1.132687
 C        -2.006559         0.357749        -0.155169
 C        -1.549884        -0.927079        -1.043622
 C        -0.596535        -1.186701         0.207692
 O        -0.068106        -2.475961         0.450722
 C         0.284182        -0.008749         0.197224
 O         1.519235         0.043720         0.271163
 C        -0.637852         1.203048        -0.141001
 H        -3.548970        -1.919661         0.746534
 H        -2.831705        -2.008299         2.486426
 H        -3.795031        -0.693733         2.091009
 H        -1.247947         0.033960         1.947101
 H        -3.006330         0.720644        -0.403982
 H        -2.421080        -1.647353        -1.095277
 H        -1.116590        -0.845807        -2.160129
 H         0.856483        -2.246647         0.775460
 H        -0.664330         1.852804         0.723599
 H        -0.462226         1.814830        -1.060677
