19
Iteration:  1401charge 0 multiplicity 1
 C        -2.984247        -1.458231         1.638488
 C        -1.888030        -0.616601         1.086498
 C        -1.953901         0.416542        -0.078166
 C        -1.484970        -0.808973        -1.091324
 C        -0.689146        -1.215811         0.234281
 O        -0.213769        -2.520379         0.478537
 C         0.315563         0.000729         0.155566
 O         1.515465         0.079562         0.128955
 C        -0.625219         1.180321        -0.024272
 H        -3.575718        -1.902914         0.924452
 H        -2.402088        -2.138422         2.322288
 H        -3.554155        -0.740929         2.366473
 H        -1.440560        -0.049537         1.889085
 H        -2.830368         0.901571        -0.511997
 H        -2.237140        -1.566895        -1.267667
 H        -0.805237        -0.494694        -1.864054
 H         0.692055        -2.500909         0.649595
 H        -0.525422         1.881320         0.801265
 H        -0.568538         1.799505        -0.947652
