19
Iteration:   900charge 0 multiplicity 1
 C        -2.815665        -1.452937         1.562939
 C        -1.774852        -0.499258         1.111717
 C        -2.004502         0.380773        -0.042924
 C        -1.703577        -0.822281        -0.965314
 C        -0.647974        -1.197681         0.203787
 O        -0.157973        -2.505873         0.394017
 C         0.295345         0.001910         0.081474
 O         1.453194         0.032772         0.419654
 C        -0.645567         1.168627        -0.184549
 H        -3.213126        -1.932708         0.597660
 H        -2.359009        -2.336118         2.103395
 H        -3.506706        -0.792391         2.140098
 H        -1.237514         0.053329         1.971514
 H        -2.931115         1.003578        -0.265747
 H        -2.643237        -1.542255        -1.116543
 H        -1.340218        -0.827965        -2.037210
 H         0.792191        -2.399722         0.205757
 H        -0.424750         1.962131         0.576561
 H        -0.437713         1.545376        -1.252036
