19
Iteration:  1153charge 0 multiplicity 1
 C        -2.986829        -1.433251         1.650072
 C        -1.743786        -0.497556         1.196424
 C        -1.902936         0.336633        -0.102213
 C        -1.643489        -0.874889        -1.002114
 C        -0.666763        -1.219902         0.229986
 O        -0.123389        -2.444500         0.282633
 C         0.279914         0.013967         0.174129
 O         1.464003         0.022009         0.325617
 C        -0.633639         1.178707        -0.141785
 H        -3.519218        -1.962921         0.677206
 H        -2.553195        -2.337561         2.263046
 H        -3.781321        -0.854059         2.165038
 H        -1.395223         0.190502         1.969312
 H        -2.887155         0.778958        -0.131681
 H        -2.501425        -1.480684        -1.340469
 H        -1.186813        -0.679668        -2.038984
 H         0.854445        -2.349850         0.291006
 H        -0.661975         1.940584         0.661597
 H        -0.381081         1.583569        -1.160438
