19
Iteration:  3101
 C        -2.991958        -1.507016         1.572199
 C        -1.875845        -0.496220         1.171458
 C        -1.949996         0.325447        -0.292306
 C        -1.642421        -0.974401        -0.888822
 C        -0.695154        -1.125712         0.248937
 O        -0.116151        -2.404790         0.432934
 C         0.352544         0.058214         0.244598
 O         1.563266         0.083642         0.319455
 C        -0.623994         1.149854        -0.229728
 H        -3.751403        -1.426516         0.861048
 H        -2.612319        -2.598677         1.795661
 H        -3.576032        -1.369116         2.545444
 H        -1.593056         0.157385         1.979005
 H        -2.848087         0.864528        -0.691578
 H        -2.484705        -1.660380        -0.841869
 H        -1.365494        -0.976677        -1.970171
 H         0.849946        -2.353576         0.287019
 H        -0.366314         1.987645         0.504084
 H        -0.415332         1.471947        -1.277996
