19
Iteration:   910
 C        -2.854169        -1.371343         1.617319
 C        -1.715440        -0.515817         1.156452
 C        -2.000510         0.420051        -0.121043
 C        -1.641305        -0.876383        -1.028977
 C        -0.689003        -1.212202         0.101099
 O        -0.097783        -2.481719         0.366983
 C         0.244481        -0.020486         0.167176
 O         1.451501        -0.014203         0.419909
 C        -0.684190         1.193247        -0.149669
 H        -3.414978        -1.944913         0.818410
 H        -2.376702        -2.181323         2.284212
 H        -3.676045        -1.086512         2.281471
 H        -1.214083        -0.179309         2.111161
 H        -3.056472         0.822542        -0.268115
 H        -2.599355        -1.458050        -0.885029
 H        -1.237759        -0.639202        -2.028060
 H         0.812929        -2.364467         0.175732
 H        -0.489183         2.124654         0.398278
 H        -0.461585         1.550280        -1.244390
