19
Iteration:  1225charge 0 multiplicity 1
 C        -2.735585        -1.523350         1.540272
 C        -1.807966        -0.444406         1.126081
 C        -1.936323         0.408054        -0.137585
 C        -1.709419        -0.825502        -0.949158
 C        -0.683799        -1.136060         0.182460
 O        -0.144050        -2.468006         0.317777
 C         0.245406         0.023119         0.123570
 O         1.389392        -0.091809         0.471049
 C        -0.634503         1.209533        -0.192476
 H        -3.204367        -2.215172         0.849855
 H        -2.117068        -2.073568         2.238144
 H        -3.449993        -0.922121         2.181271
 H        -1.370079         0.119724         2.027913
 H        -2.856228         0.984415        -0.254442
 H        -2.527884        -1.572425        -1.024696
 H        -1.281882        -0.975777        -1.900805
 H         0.748465        -2.316527         0.574162
 H        -0.518709         1.844905         0.669538
 H        -0.344055         1.660522        -1.161771
