19
Iteration:  1903charge 0 multiplicity 1
 C        -3.074193        -1.449111         1.576486
 C        -1.780517        -0.633476         1.099201
 C        -2.001595         0.343404        -0.136696
 C        -1.562895        -0.688312        -1.089406
 C        -0.647347        -1.169071         0.199266
 O        -0.062185        -2.385843         0.591458
 C         0.261496        -0.015634         0.134823
 O         1.495089        -0.124848         0.095065
 C        -0.682011         1.214953         0.000420
 H        -3.701837        -2.076751         1.049471
 H        -2.596452        -2.329749         2.190851
 H        -3.597491        -0.887891         2.414139
 H        -1.212784        -0.123177         1.833132
 H        -2.958561         0.850283        -0.340938
 H        -2.326814        -1.498013        -1.191546
 H        -0.993268        -0.385741        -2.022719
 H         0.946042        -2.106723         0.666251
 H        -0.502697         1.676299         0.950986
 H        -0.275556         1.930169        -0.810073
