19
Iteration:  1720charge 0 multiplicity 1
 C        -2.805155        -1.468893         1.439086
 C        -1.639918        -0.529675         1.119897
 C        -1.975942         0.439196         0.019636
 C        -1.760757        -0.834640        -0.986212
 C        -0.686948        -1.212157         0.134999
 O        -0.148226        -2.427176         0.467310
 C         0.270984        -0.050525         0.097390
 O         1.429291        -0.012852         0.393247
 C        -0.635693         1.143933        -0.204348
 H        -2.988446        -2.293006         0.766761
 H        -2.610311        -1.817145         2.450334
 H        -3.617715        -0.697163         1.621939
 H        -1.300404        -0.229809         2.120623
 H        -2.918299         0.999824        -0.034623
 H        -2.668622        -1.443442        -1.007351
 H        -1.440605        -0.546150        -1.975962
 H         0.817311        -2.222911         0.484169
 H        -0.492443         1.879814         0.614318
 H        -0.611988         1.673498        -1.113172
