19
Iteration:  4788charge 0 multiplicity 1
 C        -2.817647        -1.524234         1.566734
 C        -1.772975        -0.522315         1.100597
 C        -1.941880         0.375131        -0.216614
 C        -1.763128        -0.891272        -0.988556
 C        -0.716365        -1.132775         0.239119
 O        -0.137872        -2.427160         0.523144
 C         0.287261         0.008732         0.128836
 O         1.472332         0.021333         0.381781
 C        -0.607275         1.158468        -0.209478
 H        -3.412726        -1.841019         0.651908
 H        -2.393412        -2.320501         2.159726
 H        -3.574879        -0.993420         2.116516
 H        -1.332161         0.123367         1.938119
 H        -2.895073         0.893032        -0.324984
 H        -2.554978        -1.508218        -1.186001
 H        -1.269497        -0.776405        -2.076581
 H         0.787462        -2.204373         0.661009
 H        -0.533295         1.933033         0.500637
 H        -0.325835         1.639894        -1.219827
