19
Iteration:   344charge 0 multiplicity 1
 C        -2.821920        -1.448407         1.688626
 C        -1.800228        -0.527581         1.037262
 C        -1.963040         0.463352        -0.187662
 C        -1.611486        -0.843590        -1.091391
 C        -0.761248        -1.245630         0.116903
 O        -0.131854        -2.410576         0.353743
 C         0.266957         0.013441         0.185911
 O         1.477405        -0.089722         0.372685
 C        -0.667290         1.216940        -0.045796
 H        -3.062276        -2.371984         1.166400
 H        -2.207032        -2.013852         2.379569
 H        -3.722522        -1.179800         2.310258
 H        -1.337167        -0.003852         1.926011
 H        -2.804596         1.117285        -0.399098
 H        -2.370637        -1.652909        -1.060162
 H        -1.211057        -0.801979        -2.211517
 H         0.417104        -2.258626         1.158145
 H        -0.677272         2.013315         0.741896
 H        -0.392242         1.729060        -0.949220
