19
Iteration:    29charge 0 multiplicity 1
 C        -2.846352        -1.610486         1.472674
 C        -1.823498        -0.457633         1.275100
 C        -1.919789         0.458271        -0.004150
 C        -1.689296        -0.799031        -0.819652
 C        -0.604088        -1.182914         0.230933
 O        -0.286584        -2.461108         0.279557
 C         0.310220        -0.015807         0.160039
 O         1.533559         0.018006         0.285747
 C        -0.584690         1.205273        -0.249364
 H        -2.500637        -2.622021         1.779691
 H        -3.522975        -1.579154         2.368732
 H        -3.521639        -1.820038         0.577212
 H        -1.501532         0.182783         2.136730
 H        -2.932507         0.980563        -0.210864
 H        -2.668513        -1.404624        -0.931195
 H        -1.178391        -0.460757        -1.748131
 H         0.648256        -2.573573         0.323007
 H        -0.464549         2.178948         0.363702
 H        -0.552772         1.154243        -1.349398
