19
Iteration:  4247charge 0 multiplicity 1
 C        -2.868106        -1.428769         1.690300
 C        -1.825680        -0.508836         1.094244
 C        -1.956128         0.326826        -0.263359
 C        -1.577250        -0.903481        -1.006256
 C        -0.651696        -1.137129         0.215575
 O        -0.119892        -2.416405         0.362476
 C         0.261957         0.028447         0.179132
 O         1.431795        -0.066389         0.521011
 C        -0.678869         1.217351        -0.292242
 H        -3.373375        -1.967579         0.969056
 H        -2.423291        -2.335262         2.200718
 H        -3.599310        -0.758415         2.167572
 H        -1.375226         0.058979         1.924076
 H        -3.045931         0.691825        -0.334426
 H        -2.272132        -1.685521        -0.962128
 H        -1.187234        -0.830287        -1.944499
 H         0.803467        -2.168233         0.281480
 H        -0.598850         2.073200         0.550484
 H        -0.506252         1.626614        -1.252854
