19
Iteration:  4794
 C        -2.830796        -1.495355         1.565803
 C        -1.758727        -0.518713         1.115703
 C        -1.991950         0.385209        -0.235441
 C        -1.745700        -0.914967        -1.008941
 C        -0.709521        -1.199458         0.218533
 O        -0.163135        -2.352356         0.490800
 C         0.294760        -0.031430         0.047872
 O         1.477218         0.023277         0.422692
 C        -0.578366         1.164592        -0.150071
 H        -3.253817        -1.982451         0.684135
 H        -2.355439        -2.355218         2.099488
 H        -3.546582        -0.998601         2.278767
 H        -1.388418         0.093388         1.898707
 H        -2.899496         0.978745        -0.423405
 H        -2.611288        -1.791915        -0.897315
 H        -1.229687        -0.707044        -1.852718
 H         0.826127        -2.069321         0.746758
 H        -0.500278         2.112597         0.522901
 H        -0.361578         1.422375        -1.172239
