19
Iteration:  1391charge 0 multiplicity 1
 C        -2.977655        -1.516769         1.554019
 C        -1.826847        -0.540757         1.107768
 C        -1.954701         0.408343        -0.131433
 C        -1.553318        -0.830262        -1.002954
 C        -0.699039        -1.203634         0.260609
 O        -0.229929        -2.520846         0.519370
 C         0.344241         0.038458         0.128769
 O         1.585855         0.050845         0.121646
 C        -0.648427         1.251647        -0.065382
 H        -3.519196        -2.075637         0.832813
 H        -2.579704        -2.383468         2.188451
 H        -3.766612        -0.943464         2.252974
 H        -1.571228        -0.161774         2.115056
 H        -2.949624         0.883037        -0.129165
 H        -2.401098        -1.458478        -1.253136
 H        -1.101456        -0.697869        -1.995101
 H         0.695251        -2.433618         0.645484
 H        -0.474922         1.689067         0.918537
 H        -0.370346         1.934104        -0.915990
