19
Iteration:  3881
 C        -3.178132        -1.454044         1.456991
 C        -1.865083        -0.507917         1.132237
 C        -2.000907         0.389590        -0.115086
 C        -1.436237        -0.891471        -0.975233
 C        -0.667027        -1.150997         0.350479
 O         0.114783        -2.334170         0.599001
 C         0.296047         0.050688         0.209358
 O         1.459220        -0.222989         0.003373
 C        -0.748284         1.209163        -0.048730
 H        -3.581208        -2.219667         0.667991
 H        -3.059297        -1.988654         2.473546
 H        -4.028088        -0.747572         1.324940
 H        -1.496908        -0.107841         2.170824
 H        -2.921450         0.920204        -0.356972
 H        -2.054539        -1.674245        -1.249133
 H        -0.924821        -0.496526        -1.844582
 H         1.055916        -2.149233         0.398458
 H        -0.740799         1.915407         0.782703
 H        -0.366639         1.830886        -0.984615
