19
Iteration:  3145
 C        -2.758480        -1.380038         1.668721
 C        -1.617086        -0.500202         1.174457
 C        -1.949859         0.273850        -0.150258
 C        -1.594748        -0.866945        -1.093847
 C        -0.688191        -1.193916         0.055697
 O        -0.192496        -2.453801         0.445013
 C         0.256018        -0.052318         0.011761
 O         1.347862         0.074227         0.573764
 C        -0.713553         1.165772        -0.283725
 H        -3.136619        -1.911931         0.860827
 H        -2.604288        -2.202730         2.496617
 H        -3.661297        -0.829314         2.138023
 H        -1.274493         0.096575         2.046805
 H        -3.000196         0.662157        -0.294734
 H        -2.445757        -1.487086        -1.361176
 H        -0.990817        -0.598158        -2.003406
 H         0.437802        -2.490344         1.235976
 H        -0.700092         2.056857         0.404029
 H        -0.456810         1.536876        -1.275627
