19
Iteration:  4130charge 0 multiplicity 1
 C        -2.971357        -1.615988         1.456806
 C        -1.935525        -0.520986         1.119658
 C        -1.925899         0.435643        -0.154461
 C        -1.549294        -0.810758        -1.068344
 C        -0.621957        -1.119194         0.321120
 O        -0.109473        -2.338405         0.681973
 C         0.290478         0.051033         0.170509
 O         1.487671        -0.172826         0.009274
 C        -0.670127         1.248541        -0.015579
 H        -3.097085        -2.336860         0.650694
 H        -2.543409        -2.218714         2.297746
 H        -3.919294        -1.174175         1.667513
 H        -1.432068        -0.090733         1.961463
 H        -2.857195         1.065858        -0.297992
 H        -2.335380        -1.533291        -1.268601
 H        -0.873398        -0.653377        -2.021315
 H         0.789810        -2.486554         1.128229
 H        -0.786489         1.842846         0.855863
 H        -0.528429         1.861327        -0.852608
