19
Iteration:  2507charge 0 multiplicity 1
 C        -2.936204        -1.541684         1.468228
 C        -1.822137        -0.523792         1.166904
 C        -1.983505         0.429764        -0.107856
 C        -1.617912        -0.827009        -1.043058
 C        -0.688721        -1.155495         0.215673
 O        -0.107098        -2.356808         0.607628
 C         0.264305         0.011625         0.115441
 O         1.481750        -0.119297         0.102679
 C        -0.590217         1.178502        -0.037345
 H        -2.989395        -1.737374         2.633725
 H        -3.863601        -1.316779         1.135197
 H        -2.676283        -2.499195         1.081241
 H        -1.548367         0.088433         2.024545
 H        -2.811634         1.190090        -0.273337
 H        -2.505252        -1.458849        -0.977042
 H        -1.001218        -0.791325        -1.877277
 H         0.909584        -2.302327         0.653278
 H        -0.701871         1.803741         0.904525
 H        -0.449331         1.890820        -0.870077
