19
Iteration:  2184
 C        -2.855687        -1.522699         1.556299
 C        -1.778642        -0.464465         1.168210
 C        -1.937798         0.431588        -0.095993
 C        -1.562582        -0.865420        -1.004379
 C        -0.692249        -1.159734         0.249095
 O        -0.216193        -2.394557         0.470135
 C         0.267555        -0.016150         0.171999
 O         1.490129        -0.082495         0.023466
 C        -0.710533         1.220054         0.018548
 H        -3.571275        -1.457170         0.789338
 H        -2.362185        -2.551019         1.258520
 H        -3.308336        -1.463977         2.540218
 H        -1.488694         0.081514         2.036093
 H        -2.832260         1.018583        -0.131557
 H        -2.432383        -1.518759        -1.180469
 H        -0.915321        -0.777977        -1.902962
 H         0.714125        -2.641657         0.799910
 H        -0.683643         1.635376         1.066830
 H        -0.403381         1.946508        -0.806810
