19
Iteration:  2968charge 0 multiplicity 1
 C        -2.935395        -1.459553         1.543793
 C        -1.869351        -0.519596         1.107856
 C        -2.009937         0.262080        -0.181821
 C        -1.549069        -0.877232        -1.108038
 C        -0.684637        -1.153891         0.291845
 O        -0.131405        -2.434885         0.706965
 C         0.341650         0.004821         0.091175
 O         1.537026         0.036217         0.196569
 C        -0.682222         1.185818        -0.216274
 H        -3.832341        -0.797680         1.758276
 H        -3.165543        -2.096917         0.690953
 H        -2.573626        -2.083554         2.387829
 H        -1.442829         0.055940         1.900350
 H        -2.928426         0.798359        -0.269042
 H        -2.334874        -1.616788        -1.432082
 H        -0.957765        -0.588148        -1.968307
 H         0.512020        -2.188200         1.408633
 H        -0.768690         1.718743         0.793051
 H        -0.463257         1.978974        -0.929574
