19
Iteration:  2952
 C        -2.974478        -1.463871         1.599344
 C        -1.820703        -0.501790         1.023015
 C        -1.996687         0.360378        -0.279654
 C        -1.644901        -0.969885        -1.062068
 C        -0.634273        -1.197345         0.199292
 O        -0.092845        -2.350115         0.641935
 C         0.329621         0.025634         0.057813
 O         1.518540         0.021371         0.340127
 C        -0.666057         1.141183        -0.112481
 H        -3.683420        -0.962931         2.245718
 H        -3.645326        -2.070147         0.948083
 H        -2.423605        -2.152572         2.226488
 H        -1.589735         0.159229         1.906009
 H        -2.862420         0.972524        -0.676332
 H        -2.414326        -1.719422        -0.992976
 H        -1.223077        -0.860514        -2.094345
 H         0.813169        -2.166978         1.099498
 H        -0.557016         1.784789         0.727915
 H        -0.467560         1.660533        -1.065812
