19
Iteration:  4470
 C        -2.873604        -1.466732         1.554989
 C        -1.821693        -0.483434         1.074464
 C        -1.988172         0.342730        -0.178715
 C        -1.546201        -0.917493        -1.028089
 C        -0.649047        -1.174550         0.202000
 O        -0.233221        -2.431046         0.632553
 C         0.256848         0.007903         0.143571
 O         1.471693         0.012224         0.137979
 C        -0.618952         1.218071         0.005473
 H        -3.192949        -2.101791         0.527093
 H        -2.477272        -2.176924         2.338725
 H        -3.761990        -0.960826         2.014506
 H        -1.331775        -0.081285         1.935572
 H        -2.896479         0.847763        -0.404199
 H        -2.282808        -1.703105        -1.208160
 H        -0.976339        -0.661590        -1.918616
 H         0.759412        -2.291762         0.442535
 H        -0.573332         1.917135         0.849448
 H        -0.333816         1.711526        -1.046920
