19
Iteration:  1637
 C        -3.067679        -1.456906         1.477243
 C        -1.789216        -0.648245         1.140455
 C        -1.977182         0.393672        -0.084476
 C        -1.603233        -0.820683        -0.997874
 C        -0.664953        -1.152503         0.306427
 O        -0.076821        -2.372927         0.577532
 C         0.312260         0.000169         0.074196
 O         1.541067        -0.090863         0.030698
 C        -0.633642         1.218355         0.018276
 H        -3.740159        -1.655928         0.605365
 H        -2.766423        -2.402357         1.867820
 H        -3.788328        -0.978757         2.040388
 H        -1.419895        -0.150480         2.077118
 H        -2.911634         1.003891        -0.093941
 H        -2.376431        -1.585435        -1.122164
 H        -1.112058        -0.634413        -1.974942
 H         0.930153        -2.218273         0.644208
 H        -0.615446         1.799689         0.985093
 H        -0.672364         1.947234        -0.835867
