19
Iteration:  1254
 C        -3.032642        -1.484565         1.579111
 C        -1.728356        -0.589436         1.199203
 C        -1.966850         0.324797         0.001662
 C        -1.670888        -0.742466        -0.962843
 C        -0.661716        -1.159560         0.188016
 O        -0.182209        -2.431318         0.286131
 C         0.345830        -0.026371         0.126540
 O         1.548766         0.113056         0.394398
 C        -0.640119         1.117774        -0.261488
 H        -3.233439        -2.129410         0.599145
 H        -2.879258        -2.303813         2.297386
 H        -3.685548        -0.755211         2.024799
 H        -1.194328        -0.105984         1.972198
 H        -2.996610         0.746980         0.030950
 H        -2.401106        -1.571334        -1.037040
 H        -1.125953        -0.756344        -1.993929
 H         0.535898        -2.337836         0.879427
 H        -0.286671         1.973495         0.355990
 H        -0.475997         1.170974        -1.320290
