19
Iteration:  1377
 C        -2.951639        -1.578868         1.397075
 C        -1.769563        -0.522293         1.208939
 C        -1.960289         0.413771        -0.099451
 C        -1.691477        -0.862918        -0.932499
 C        -0.640889        -1.134049         0.256406
 O        -0.238882        -2.426987         0.557024
 C         0.351912         0.035500         0.076376
 O         1.556755        -0.027702         0.122208
 C        -0.620738         1.213036        -0.028560
 H        -3.149393        -1.871873         0.411981
 H        -2.568931        -2.388238         2.020295
 H        -3.815854        -1.101387         1.943952
 H        -1.380274         0.056489         1.987196
 H        -2.838854         1.007615        -0.408752
 H        -2.444868        -1.619020        -0.752562
 H        -1.235720        -0.725074        -1.906139
 H         0.775670        -2.480036         0.599736
 H        -0.781699         1.914738         0.760851
 H        -0.388971         1.826197        -0.923662
