19
Iteration:  2967
 C        -2.931291        -1.458053         1.544324
 C        -1.884128        -0.524982         1.106976
 C        -2.006627         0.257793        -0.192109
 C        -1.563051        -0.880274        -1.109986
 C        -0.683144        -1.148572         0.289540
 O        -0.125248        -2.434755         0.706915
 C         0.347772         0.015568         0.079050
 O         1.536256         0.034401         0.208299
 C        -0.674884         1.181752        -0.209621
 H        -3.819994        -0.782681         1.812074
 H        -3.161937        -2.067762         0.738228
 H        -2.568535        -2.059776         2.356747
 H        -1.454402         0.032971         1.914207
 H        -2.929832         0.802349        -0.247137
 H        -2.335806        -1.622036        -1.426423
 H        -0.971361        -0.597543        -1.988432
 H         0.495065        -2.179875         1.375101
 H        -0.769629         1.706243         0.768541
 H        -0.448214         1.966271        -0.905567
