19
Iteration:  2379charge 0 multiplicity 1
 C        -2.845717        -1.564988         1.626112
 C        -1.815663        -0.461322         1.186831
 C        -2.021962         0.455600        -0.112653
 C        -1.629350        -0.809909        -0.978812
 C        -0.722416        -1.126902         0.199937
 O        -0.121435        -2.468052         0.291159
 C         0.269200         0.039488         0.203465
 O         1.479890        -0.141129         0.314422
 C        -0.622953         1.215354        -0.142527
 H        -3.676825        -1.322133         0.986296
 H        -2.378745        -2.573412         1.546056
 H        -3.043736        -1.296256         2.640146
 H        -1.464477         0.190123         2.095191
 H        -3.053217         0.773031        -0.295576
 H        -2.531054        -1.426439        -1.216582
 H        -1.157757        -0.740291        -2.009059
 H         0.873542        -2.250419         0.572411
 H        -0.385551         2.088824         0.486655
 H        -0.390004         1.446378        -1.143640
