19
Iteration:   578
 C        -2.921772        -1.457330         1.641588
 C        -1.815404        -0.518741         1.086853
 C        -1.998827         0.436473        -0.198338
 C        -1.593523        -0.838300        -1.003720
 C        -0.732529        -1.202271         0.220922
 O        -0.088238        -2.459977         0.394620
 C         0.288926         0.049096         0.181261
 O         1.500945        -0.095662         0.160335
 C        -0.677400         1.210180         0.023826
 H        -3.385784        -2.234078         0.950240
 H        -2.342555        -2.058040         2.394644
 H        -3.605148        -0.798385         2.166732
 H        -1.503208         0.021314         2.019354
 H        -2.999906         0.915570        -0.337672
 H        -2.388817        -1.709416        -1.208020
 H        -0.934671        -0.733253        -1.889350
 H         0.750793        -2.208597         0.742787
 H        -0.663678         1.920470         0.865336
 H        -0.261167         1.736748        -0.881522
