19
Iteration:  4117charge 0 multiplicity 1
 C        -2.875041        -1.579375         1.435454
 C        -1.788030        -0.521867         1.128597
 C        -2.008750         0.325600        -0.209415
 C        -1.585648        -0.829918        -1.035107
 C        -0.703792        -1.098719         0.323056
 O        -0.172777        -2.360936         0.624256
 C         0.313263         0.027835         0.152447
 O         1.513898        -0.104230         0.061220
 C        -0.631698         1.213524         0.021201
 H        -3.078035        -2.207085         0.665936
 H        -2.766492        -2.154371         2.387758
 H        -3.795196        -1.056756         1.554832
 H        -1.762783         0.103878         2.036604
 H        -2.886147         1.010981        -0.541446
 H        -2.339827        -1.601389        -1.115455
 H        -1.113600        -0.614487        -2.043249
 H         0.540894        -1.997028         1.104444
 H        -0.774625         1.772700         0.991061
 H        -0.257680         1.852224        -0.667292
