19
Iteration:  3674
 C        -2.919604        -1.407254         1.553276
 C        -1.768959        -0.516173         1.115242
 C        -1.982555         0.329773        -0.217197
 C        -1.555527        -0.996646        -0.975834
 C        -0.633881        -1.196380         0.248136
 O        -0.158073        -2.459485         0.454609
 C         0.308633         0.039121         0.105057
 O         1.514973         0.003543         0.274958
 C        -0.735677         1.229342        -0.041318
 H        -3.414248        -1.947154         0.749398
 H        -2.704307        -1.781997         2.548281
 H        -3.828492        -0.847836         1.770622
 H        -1.317843         0.085581         1.848684
 H        -2.937845         0.845312        -0.392749
 H        -2.477770        -1.460393        -1.300364
 H        -1.106920        -0.679892        -2.007441
 H         0.663121        -2.371025         1.048752
 H        -0.699837         1.935195         0.719985
 H        -0.565984         1.843364        -0.967803
