19
Iteration:  4830
 C        -2.822410        -1.386928         1.667315
 C        -1.719465        -0.493562         1.126982
 C        -2.029481         0.342691        -0.250530
 C        -1.637068        -0.866546        -1.018015
 C        -0.720262        -1.180670         0.220666
 O        -0.035928        -2.462066         0.398885
 C         0.254975        -0.013398         0.156618
 O         1.426757        -0.088975         0.472835
 C        -0.732133         1.252299        -0.233921
 H        -3.523120        -1.898486         0.892289
 H        -2.358391        -2.148769         2.258517
 H        -3.566612        -0.936265         2.294592
 H        -1.391931         0.090177         1.932067
 H        -2.899245         0.880029        -0.490170
 H        -2.349324        -1.568563        -1.281865
 H        -1.202831        -0.752200        -2.055918
 H         0.956354        -2.314128         0.594164
 H        -0.786608         2.169771         0.348965
 H        -0.397620         1.558326        -1.322680
