19
Iteration:  1865
 C        -2.929362        -1.603840         1.418072
 C        -1.754827        -0.446034         1.200620
 C        -1.949113         0.451068        -0.096443
 C        -1.643581        -0.836290        -0.810480
 C        -0.714351        -1.153954         0.314496
 O        -0.138860        -2.373208         0.447492
 C         0.243160         0.007059         0.110967
 O         1.458888        -0.096709         0.229578
 C        -0.570659         1.192335        -0.227565
 H        -3.173128        -1.768196         0.314983
 H        -2.409014        -2.441207         1.790622
 H        -3.834520        -1.411874         1.952187
 H        -1.447629        -0.118284         2.198505
 H        -2.948941         0.886194         0.020372
 H        -2.423308        -1.560379        -0.823772
 H        -1.350583        -0.638585        -1.813368
 H         0.880112        -2.237907         0.246047
 H        -0.464414         1.941030         0.616634
 H        -0.262079         1.660215        -1.108950
