19
Iteration:  1272charge 0 multiplicity 1
 C        -3.015629        -1.362066         1.511046
 C        -1.760646        -0.640334         1.208427
 C        -1.935092         0.373774        -0.036582
 C        -1.592977        -0.893457        -0.912296
 C        -0.629355        -1.219151         0.217087
 O        -0.137147        -2.545648         0.296534
 C         0.292690         0.029544         0.137256
 O         1.497016         0.109149         0.307544
 C        -0.694326         1.216129        -0.147125
 H        -3.445698        -1.920848         0.721730
 H        -2.724598        -2.099553         2.323094
 H        -3.696778        -0.567730         1.857004
 H        -1.226700        -0.159059         2.147078
 H        -2.781761         1.056175        -0.103829
 H        -2.273760        -1.612634        -1.338532
 H        -1.332182        -0.608035        -1.920801
 H         0.734687        -2.605540         0.630764
 H        -0.493331         1.981812         0.645430
 H        -0.627972         1.577958        -1.222080
