19
Iteration:  4514charge 0 multiplicity 1
 C        -2.922141        -1.368638         1.646974
 C        -1.814874        -0.481531         1.164875
 C        -2.000502         0.364999        -0.097547
 C        -1.588343        -0.907698        -1.072339
 C        -0.638289        -1.216377         0.169395
 O        -0.037239        -2.448188         0.370143
 C         0.261905         0.026266         0.195302
 O         1.450022        -0.046617         0.375889
 C        -0.685032         1.148117        -0.178778
 H        -3.400655        -2.103660         0.762590
 H        -2.600800        -1.785578         2.619513
 H        -3.801446        -0.710025         1.874864
 H        -1.602259         0.131420         2.002485
 H        -2.865317         0.955840        -0.332937
 H        -2.363802        -1.638086        -1.047761
 H        -1.227678        -0.725286        -2.075837
 H         0.912675        -2.341062         0.530683
 H        -0.583251         2.119597         0.302348
 H        -0.556536         1.341610        -1.362804
