19
Iteration:  3241
 C        -3.038104        -1.340401         1.551642
 C        -1.728859        -0.631417         1.172813
 C        -1.993107         0.294569        -0.061184
 C        -1.617591        -0.935243        -1.027819
 C        -0.658046        -1.246081         0.123422
 O        -0.075377        -2.381459         0.518437
 C         0.282670         0.011476         0.088174
 O         1.510820         0.054673         0.293616
 C        -0.659431         1.202220        -0.198061
 H        -3.349620        -1.988166         0.810540
 H        -2.971338        -1.967662         2.459432
 H        -3.870126        -0.642713         1.809985
 H        -1.447966        -0.112877         2.144793
 H        -2.964518         0.835187         0.037394
 H        -2.315446        -1.778488        -1.194541
 H        -1.154555        -0.711248        -2.031612
 H         0.774852        -2.256453         0.894001
 H        -0.374932         1.998179         0.544942
 H        -0.474935         1.704547        -1.118042
