19
Iteration:  3795charge 0 multiplicity 1
 C        -2.805822        -1.509742         1.700290
 C        -1.869499        -0.477552         1.080991
 C        -1.990796         0.395960        -0.220090
 C        -1.507476        -0.946455        -1.109847
 C        -0.672184        -1.137421         0.250075
 O        -0.251093        -2.423833         0.506402
 C         0.281563        -0.022007         0.149797
 O         1.494635         0.021156         0.408355
 C        -0.704535         1.213326        -0.212851
 H        -3.433005        -1.753044         0.738992
 H        -2.190880        -2.338203         2.197715
 H        -3.470508        -1.109959         2.508577
 H        -1.289900         0.080143         1.908558
 H        -2.893465         0.800707        -0.605603
 H        -2.275926        -1.679123        -1.144409
 H        -1.058485        -0.683069        -2.179867
 H         0.682733        -2.498885         0.249369
 H        -0.462438         1.979425         0.462981
 H        -0.423163         1.568623        -1.283074
