19
Iteration:  4861
 C        -2.995460        -1.348871         1.694716
 C        -1.774293        -0.570863         1.135757
 C        -1.960526         0.268055        -0.194925
 C        -1.640778        -0.877604        -1.030272
 C        -0.640095        -1.164961         0.192440
 O        -0.043034        -2.451945         0.364435
 C         0.280969        -0.021174         0.091667
 O         1.432824         0.037869         0.430012
 C        -0.651929         1.157754        -0.191068
 H        -3.548812        -2.035642         0.929486
 H        -2.559338        -1.937110         2.484571
 H        -3.617806        -0.603438         2.212681
 H        -1.365624         0.135274         1.906944
 H        -2.804605         0.871510        -0.333408
 H        -2.492291        -1.759625        -1.185130
 H        -1.200355        -0.586739        -2.012148
 H         0.906884        -2.202367         0.618143
 H        -0.701264         1.923917         0.616632
 H        -0.402436         1.620869        -1.189193
