19
Iteration:  4054charge 0 multiplicity 1
 C        -3.016321        -1.362385         1.589500
 C        -1.758003        -0.592306         1.154031
 C        -1.925882         0.336849        -0.059737
 C        -1.594518        -0.912854        -1.044195
 C        -0.652027        -1.160722         0.170337
 O        -0.090323        -2.426404         0.381080
 C         0.283157         0.054187         0.139582
 O         1.466996         0.054369         0.474182
 C        -0.698748         1.073758        -0.243387
 H        -3.512771        -1.988075         0.822132
 H        -2.736031        -2.042764         2.482967
 H        -3.575624        -0.570593         2.093952
 H        -1.423582         0.059983         1.963338
 H        -2.831485         1.011929        -0.061381
 H        -2.195386        -1.801437        -1.051900
 H        -1.190054        -0.610692        -2.104736
 H         0.773363        -2.477881         0.035369
 H        -0.531425         2.026388         0.180146
 H        -0.590017         1.221664        -1.369781
