19
Iteration:   680
 C        -2.838317        -1.497265         1.674749
 C        -1.729969        -0.529179         1.117276
 C        -2.003461         0.412360        -0.145156
 C        -1.662130        -0.783963        -1.001130
 C        -0.626841        -1.243942         0.125993
 O        -0.194339        -2.412550         0.370100
 C         0.278896         0.041663         0.155217
 O         1.479121        -0.074238         0.396739
 C        -0.690620         1.200752        -0.158210
 H        -3.319890        -1.874468         0.819078
 H        -2.328375        -2.274084         2.232942
 H        -3.604170        -1.023664         2.275586
 H        -1.248674        -0.065443         1.974433
 H        -2.915904         0.957743        -0.303170
 H        -2.470346        -1.428688        -1.200780
 H        -1.217177        -0.712462        -2.032289
 H         0.738590        -2.325102         0.563656
 H        -0.627763         2.008585         0.502945
 H        -0.431949         1.434582        -1.184779
