19
Iteration:   282
 C        -3.152608        -1.407295         1.445279
 C        -1.747564        -0.737649         1.265207
 C        -1.987803         0.381097        -0.015420
 C        -1.644788        -0.786211        -0.882872
 C        -0.681125        -1.195842         0.286234
 O        -0.016750        -2.505154         0.424877
 C         0.322922         0.070417         0.201057
 O         1.496892         0.029513         0.182719
 C        -0.566806         1.235694        -0.218112
 H        -3.571596        -1.653956         0.457077
 H        -2.951911        -2.281567         2.058662
 H        -3.865672        -0.738270         1.966996
 H        -1.304035        -0.263687         2.144094
 H        -2.926837         0.832751        -0.123621
 H        -2.317324        -1.533199        -0.971201
 H        -1.273677        -0.518932        -1.885757
 H         0.762607        -2.522036        -0.253217
 H        -0.500450         2.226595         0.331619
 H        -0.369359         1.451558        -1.274662
