19
Iteration:  1599
 C        -3.074224        -1.443804         1.361615
 C        -1.782033        -0.589940         1.177430
 C        -1.965428         0.394746         0.028985
 C        -1.703174        -0.746940        -0.949575
 C        -0.670858        -1.222370         0.388437
 O         0.038737        -2.418605         0.535108
 C         0.292751        -0.022621         0.146506
 O         1.529150        -0.065092         0.118883
 C        -0.674773         1.170144        -0.144421
 H        -3.444621        -1.599477         0.365363
 H        -2.857357        -2.486853         1.804142
 H        -3.829371        -0.791596         2.027969
 H        -1.376469        -0.161828         2.080095
 H        -2.852262         1.028435        -0.117712
 H        -2.430401        -1.562599        -1.055416
 H        -1.330449        -0.518230        -1.952142
 H         0.880562        -2.143678        -0.031729
 H        -0.450564         1.972906         0.567831
 H        -0.590597         1.640258        -1.112202
