19
Iteration:  2583
 C        -3.027683        -1.398357         1.654605
 C        -1.759460        -0.526690         1.117943
 C        -1.928429         0.335459        -0.151452
 C        -1.576801        -0.896250        -0.998922
 C        -0.604467        -1.223337         0.212292
 O        -0.113000        -2.464283         0.310867
 C         0.289140        -0.006135         0.145791
 O         1.474917         0.079682         0.409419
 C        -0.704200         1.157183        -0.209734
 H        -2.936806        -2.539335         1.945965
 H        -3.266874        -0.982164         2.597961
 H        -3.947499        -1.381248         1.106523
 H        -1.484842         0.133009         2.061553
 H        -2.907650         0.919356        -0.240244
 H        -2.361348        -1.674665        -1.035668
 H        -1.283088        -0.552755        -1.977048
 H         0.845322        -2.561351         0.730458
 H        -0.432478         2.065643         0.381432
 H        -0.404592         1.537809        -1.205625
