19
Iteration:  3461
 C        -2.754342        -1.499294         1.648121
 C        -1.764882        -0.334885         1.098139
 C        -2.023618         0.411557        -0.169724
 C        -1.708488        -0.950896        -0.966237
 C        -0.708572        -1.152441         0.130772
 O        -0.162524        -2.468063         0.371025
 C         0.276761        -0.001006         0.152389
 O         1.408825         0.019133         0.598859
 C        -0.618116         1.118057        -0.346922
 H        -2.522286        -2.436100         1.160619
 H        -2.497023        -1.825412         2.737292
 H        -3.838779        -1.370085         1.374220
 H        -1.301066         0.139218         1.924832
 H        -2.845747         1.015465        -0.600983
 H        -2.535349        -1.603593        -1.142406
 H        -1.081921        -0.664556        -1.793879
 H         0.804308        -2.407722         0.499939
 H        -0.299088         1.989374         0.265127
 H        -0.354522         1.370694        -1.352357
