19
Iteration:  1329charge 0 multiplicity 1
 C        -3.043649        -1.568246         1.601098
 C        -1.930888        -0.610743         1.182794
 C        -1.980214         0.422271        -0.134161
 C        -1.531723        -0.757877        -1.099680
 C        -0.681062        -1.194317         0.224488
 O         0.011915        -2.332895         0.529037
 C         0.259872         0.014275         0.136605
 O         1.486372        -0.206373         0.134487
 C        -0.642182         1.257208        -0.071092
 H        -3.507677        -2.137105         0.725301
 H        -2.702254        -2.142961         2.447640
 H        -3.635972        -0.893166         2.125708
 H        -1.504829        -0.092168         2.104974
 H        -2.874812         1.053480        -0.295288
 H        -2.448658        -1.265660        -1.099503
 H        -1.028205        -0.335637        -1.984258
 H         0.966303        -2.007503         0.581715
 H        -0.382247         1.966829         0.794742
 H        -0.390778         1.835015        -0.963207
