19
Iteration:  3339
 C        -3.002649        -1.525268         1.324460
 C        -1.801869        -0.496322         1.106375
 C        -1.937182         0.413647        -0.056646
 C        -1.630950        -0.854098        -1.014806
 C        -0.668676        -1.188064         0.323514
 O        -0.054814        -2.300521         0.768904
 C         0.282613        -0.047064         0.142507
 O         1.521122        -0.054446         0.038377
 C        -0.682622         1.127673        -0.099053
 H        -3.882282        -1.641768         0.599106
 H        -2.563699        -2.563298         1.390973
 H        -3.518746        -1.287314         2.299490
 H        -1.563719        -0.054617         2.088662
 H        -2.898940         0.909045        -0.330225
 H        -2.471891        -1.532169        -1.095503
 H        -1.212606        -0.620065        -2.017063
 H         0.889096        -2.132389         0.805193
 H        -0.414174         1.823974         0.757231
 H        -0.657587         1.727964        -0.987075
