19
Iteration:   892charge 0 multiplicity 1
 C        -2.796728        -1.537382         1.509529
 C        -1.726114        -0.505630         1.159219
 C        -1.969455         0.402002        -0.087347
 C        -1.750689        -0.818968        -0.941236
 C        -0.674438        -1.186281         0.222506
 O        -0.199066        -2.476939         0.409073
 C         0.301697         0.005364         0.056484
 O         1.483736         0.060049         0.406341
 C        -0.617770         1.142818        -0.222037
 H        -3.455186        -1.861044         0.660063
 H        -2.426275        -2.274092         2.185336
 H        -3.578971        -0.919076         2.026194
 H        -1.479209         0.201867         1.973379
 H        -2.818669         1.087644        -0.047109
 H        -2.456625        -1.709742        -1.017497
 H        -1.301453        -0.573056        -1.952421
 H         0.716897        -2.580994         0.403381
 H        -0.551940         1.786627         0.672913
 H        -0.536485         1.603151        -1.174228
