19
Iteration:   320
 C        -2.932450        -1.347480         1.615691
 C        -1.746026        -0.515781         1.147353
 C        -2.020308         0.334872        -0.164079
 C        -1.612323        -0.837707        -1.018577
 C        -0.622330        -1.263376         0.169672
 O        -0.120550        -2.497975         0.349429
 C         0.276975         0.014515         0.114227
 O         1.451160         0.029826         0.339206
 C        -0.651707         1.170124        -0.044245
 H        -3.323247        -2.025878         0.860487
 H        -2.802372        -2.079703         2.425677
 H        -3.754940        -0.711456         1.939768
 H        -1.413845         0.088968         2.035348
 H        -3.038098         0.831683        -0.313785
 H        -2.398025        -1.698525        -1.089712
 H        -1.259679        -0.610478        -2.023963
 H         0.899705        -2.375192         0.285980
 H        -0.503614         1.651109         0.912315
 H        -0.133257         1.869942        -0.754445
