19
Iteration:  4548
 C        -2.902914        -1.313367         1.576117
 C        -1.756916        -0.500364         1.168279
 C        -1.997066         0.385355        -0.098600
 C        -1.743206        -1.007299        -0.991418
 C        -0.615506        -1.209299         0.180706
 O         0.005676        -2.449015         0.317309
 C         0.296025         0.011433         0.018551
 O         1.385015        -0.039493         0.554460
 C        -0.612336         1.196186        -0.257432
 H        -3.444353        -2.097599         0.790899
 H        -2.686145        -2.027042         2.379402
 H        -3.545555        -0.522067         2.019969
 H        -1.413498        -0.005735         2.040644
 H        -2.924429         0.982592        -0.156412
 H        -2.564973        -1.650911        -0.897267
 H        -1.426165        -1.077476        -2.037399
 H         0.833629        -2.142658         0.726247
 H        -0.569499         1.963247         0.495021
 H        -0.657049         1.752171        -1.323102
