19
Iteration:  1313
 C        -3.028977        -1.419027         1.639905
 C        -1.841957        -0.575220         1.012423
 C        -1.962252         0.371012        -0.123858
 C        -1.608467        -0.832654        -1.034942
 C        -0.682935        -1.158596         0.215072
 O        -0.022810        -2.316368         0.440820
 C         0.262311        -0.013918         0.156339
 O         1.499555        -0.120768         0.157401
 C        -0.634394         1.154012         0.061790
 H        -3.631660        -1.991080         0.943977
 H        -2.553866        -2.169529         2.321944
 H        -4.024442        -0.941216         2.020777
 H        -1.504154        -0.133130         2.002221
 H        -2.868785         0.916894        -0.350806
 H        -2.257802        -1.783947        -1.149794
 H        -0.876778        -0.682703        -1.897657
 H         0.997921        -2.054087         0.414678
 H        -0.660067         1.794619         0.932191
 H        -0.421175         1.844564        -0.795995
