19
Iteration:   712charge 0 multiplicity 1
 C        -2.772073        -1.481427         1.680788
 C        -1.804711        -0.564775         1.103272
 C        -1.969410         0.376181        -0.197486
 C        -1.620280        -0.747733        -1.086328
 C        -0.694337        -1.199582         0.130402
 O        -0.224573        -2.391954         0.509240
 C         0.276262        -0.008814         0.091854
 O         1.442175        -0.047694         0.305947
 C        -0.664092         1.174872        -0.059820
 H        -3.152388        -2.208872         1.019121
 H        -2.143933        -2.200141         2.258973
 H        -3.628964        -1.122200         2.207068
 H        -1.361963         0.129206         1.879000
 H        -2.826084         1.009346        -0.247519
 H        -2.341679        -1.419352        -1.481487
 H        -0.964838        -0.553954        -1.994236
 H         0.715771        -2.742167         0.431456
 H        -0.577776         1.717503         0.861847
 H        -0.361019         1.955482        -0.790244
