19
Iteration:   864
 C        -2.800357        -1.590318         1.532800
 C        -1.805876        -0.563508         1.110961
 C        -1.968410         0.404845        -0.051977
 C        -1.616680        -0.823428        -0.986247
 C        -0.727548        -1.172782         0.204389
 O        -0.260753        -2.469326         0.467267
 C         0.331215         0.088569         0.115951
 O         1.520429         0.006125         0.249400
 C        -0.617853         1.228265        -0.124594
 H        -3.337340        -1.914035         0.675781
 H        -2.483878        -2.417072         2.247959
 H        -3.645550        -1.123533         2.079093
 H        -1.474192         0.120125         1.943457
 H        -2.873474         0.981846        -0.216539
 H        -2.398554        -1.497226        -0.953199
 H        -1.093379        -0.648541        -1.928489
 H         0.494621        -2.506128         1.057567
 H        -0.459315         2.195454         0.410299
 H        -0.553657         1.474686        -1.259703
