19
Iteration:   690
 C        -2.750661        -1.504831         1.679660
 C        -1.727745        -0.640867         1.119643
 C        -2.019486         0.447702        -0.168046
 C        -1.629895        -0.764439        -1.145622
 C        -0.717921        -1.124234         0.091685
 O        -0.199678        -2.467850         0.489078
 C         0.292359        -0.047121         0.121404
 O         1.478360        -0.071671         0.383422
 C        -0.720088         1.287084        -0.077222
 H        -3.351736        -2.032169         1.007489
 H        -2.424002        -2.303522         2.358260
 H        -3.404367        -0.825127         2.191504
 H        -1.309121         0.011408         1.879430
 H        -2.953390         0.971511        -0.266729
 H        -2.425973        -1.485865        -1.166298
 H        -1.111258        -0.680113        -2.135101
 H         0.725888        -2.513027         0.531752
 H        -0.536311         2.152109         0.451501
 H        -0.526688         1.608882        -1.126897
