19
Iteration:  3533
 C        -2.994181        -1.354270         1.609560
 C        -1.826874        -0.523466         1.159240
 C        -1.990818         0.312929        -0.263109
 C        -1.538979        -0.955607        -1.004460
 C        -0.673342        -1.220698         0.197666
 O        -0.029408        -2.442288         0.489388
 C         0.260992        -0.005328         0.171473
 O         1.483909         0.020495         0.291326
 C        -0.687763         1.214008        -0.107376
 H        -3.619378        -1.856708         0.708863
 H        -2.743233        -2.102621         2.395165
 H        -3.781273        -0.659171         1.974437
 H        -1.466516         0.070089         2.116016
 H        -2.882339         0.956504        -0.402585
 H        -2.350165        -1.746088        -1.060543
 H        -1.001249        -0.769451        -2.025274
 H         0.877350        -2.370546         0.208669
 H        -0.859081         2.073818         0.624158
 H        -0.166465         1.652643        -1.043047
