19
Iteration:  1619
 C        -3.118569        -1.483051         1.313764
 C        -1.827915        -0.596756         1.227423
 C        -1.935315         0.422106         0.055917
 C        -1.717285        -0.876785        -0.889246
 C        -0.629636        -1.192374         0.130289
 O         0.010996        -2.330850         0.634885
 C         0.295808         0.018252         0.031337
 O         1.514085        -0.048170         0.085903
 C        -0.570274         1.168251        -0.031820
 H        -3.688198        -1.625697         0.447418
 H        -2.800160        -2.502058         1.855262
 H        -3.776371        -0.689053         1.915266
 H        -1.628582        -0.329513         2.339961
 H        -2.942407         0.857138        -0.037898
 H        -2.616496        -1.519864        -0.908379
 H        -1.392156        -0.746276        -1.979748
 H         0.893993        -2.332840         0.137270
 H        -0.327951         1.841963         0.754881
 H        -0.212085         1.710161        -0.966726
