19
Iteration:  4460
 C        -2.846953        -1.453519         1.450583
 C        -1.782602        -0.507402         1.076340
 C        -2.048947         0.391873        -0.143378
 C        -1.535089        -0.858153        -0.989972
 C        -0.707001        -1.217065         0.262364
 O        -0.194686        -2.441506         0.660945
 C         0.291985         0.002090         0.155015
 O         1.502240        -0.013696         0.086393
 C        -0.664593         1.216570        -0.022361
 H        -3.373208        -2.148666         0.551929
 H        -2.287246        -2.158903         2.093107
 H        -3.754902        -1.048881         1.933364
 H        -1.518064         0.092150         1.947620
 H        -3.016931         0.820439        -0.274138
 H        -2.340534        -1.567065        -1.165893
 H        -0.979382        -0.750845        -1.987893
 H         0.752125        -2.569612         0.834438
 H        -0.787744         1.957211         0.755238
 H        -0.233887         1.879993        -0.967146
