19
Iteration:   967
 C        -2.950531        -1.315954         1.700731
 C        -1.832857        -0.511908         1.200840
 C        -1.992168         0.351666        -0.186127
 C        -1.647133        -0.886718        -1.037246
 C        -0.642190        -1.224921         0.128604
 O         0.060255        -2.461256         0.273595
 C         0.220528         0.051313         0.211013
 O         1.438515        -0.074203         0.338794
 C        -0.647328         1.180140        -0.065865
 H        -3.475560        -1.941328         0.837203
 H        -2.632432        -2.038739         2.438819
 H        -3.764590        -0.692125         2.136229
 H        -1.296352         0.071084         1.989054
 H        -2.941678         0.843712        -0.374090
 H        -2.628835        -1.498791        -1.098459
 H        -1.425121        -0.785580        -2.128312
 H         0.996820        -2.466614         0.330036
 H        -0.644710         1.854779         0.810729
 H        -0.397444         1.608480        -1.025101
