19
Iteration:  4037
 C        -2.944304        -1.313407         1.636445
 C        -1.722697        -0.472283         1.139393
 C        -2.051807         0.307069        -0.165902
 C        -1.692044        -0.913734        -1.001269
 C        -0.629811        -1.233879         0.147554
 O         0.016743        -2.480769         0.342813
 C         0.285831        -0.032391         0.104880
 O         1.422461         0.020155         0.567784
 C        -0.677747         1.178327        -0.269205
 H        -3.451265        -1.766748         0.718697
 H        -2.600927        -2.190526         2.106609
 H        -3.602989        -0.580990         2.176640
 H        -1.269201         0.011211         2.037352
 H        -2.975449         0.793342        -0.380087
 H        -2.594606        -1.569198        -1.038185
 H        -1.327077        -0.737591        -1.954768
 H         0.956955        -2.308939         0.477161
 H        -0.664450         1.907202         0.598324
 H        -0.439617         1.685699        -1.268755
