19
Iteration:  2941
 C        -2.934289        -1.474200         1.628765
 C        -1.876486        -0.458114         1.018768
 C        -1.954806         0.369228        -0.277987
 C        -1.586521        -1.006253        -0.979688
 C        -0.652099        -1.162842         0.131663
 O        -0.060895        -2.344948         0.581468
 C         0.253862        -0.070046         0.188890
 O         1.471707         0.011472         0.392541
 C        -0.668922         1.186239        -0.213315
 H        -3.439658        -0.831338         2.308996
 H        -3.579447        -1.797698         0.778564
 H        -2.509616        -2.346063         2.107745
 H        -1.324046         0.101637         1.821187
 H        -2.917003         0.906746        -0.558523
 H        -2.484585        -1.564967        -0.802693
 H        -1.291806        -1.202846        -2.040420
 H         0.915608        -2.097840         0.545072
 H        -0.722595         1.934553         0.542527
 H        -0.323519         1.740059        -1.106388
