19
Iteration:  3209charge 0 multiplicity 1
 C        -2.918270        -1.352431         1.611760
 C        -1.887822        -0.413615         1.162499
 C        -2.020878         0.380854        -0.162580
 C        -1.633193        -0.976802        -0.918646
 C        -0.594335        -1.244916         0.173416
 O         0.010519        -2.433537         0.269264
 C         0.227737        -0.028673         0.180400
 O         1.430743        -0.043484         0.440958
 C        -0.647746         1.193953        -0.237117
 H        -2.877291        -2.190364         1.033631
 H        -2.631472        -1.628093         2.663879
 H        -3.940799        -0.887780         1.710386
 H        -1.530205         0.319893         1.978881
 H        -3.061740         0.755820        -0.331936
 H        -2.405655        -1.775465        -0.906621
 H        -1.134043        -0.989173        -1.938776
 H         0.917556        -2.146273         0.690930
 H        -0.511809         2.122096         0.378588
 H        -0.326212         1.462455        -1.221114
