19
Iteration:   958charge 0 multiplicity 1
 C        -2.962503        -1.342301         1.768285
 C        -1.842338        -0.468108         1.136427
 C        -1.974350         0.361767        -0.137217
 C        -1.654976        -0.890867        -1.058222
 C        -0.608149        -1.223803         0.063624
 O         0.078835        -2.439315         0.259583
 C         0.247152        -0.023842         0.180212
 O         1.430890        -0.105749         0.362658
 C        -0.700889         1.173276        -0.085465
 H        -3.666476        -1.852841         0.989228
 H        -2.665911        -2.001547         2.552898
 H        -3.814992        -0.686673         2.227327
 H        -1.464877         0.096647         2.020992
 H        -2.785635         1.015091        -0.303465
 H        -2.506192        -1.622677        -1.121953
 H        -1.085623        -0.600247        -1.982604
 H         0.947017        -2.145009         0.554822
 H        -0.884380         1.878035         0.783055
 H        -0.404595         1.711731        -0.955980
