19
Iteration:  4866
 C        -3.003489        -1.355374         1.671515
 C        -1.786416        -0.559368         1.156012
 C        -1.992578         0.309819        -0.210257
 C        -1.670481        -0.882892        -1.040682
 C        -0.652175        -1.210816         0.206554
 O        -0.028450        -2.484621         0.370336
 C         0.310706         0.023623         0.074762
 O         1.482081         0.039086         0.430614
 C        -0.672465         1.158986        -0.187172
 H        -3.485110        -1.999726         0.998815
 H        -2.600768        -1.975867         2.511796
 H        -3.598807        -0.545600         2.114175
 H        -1.272155        -0.054724         1.983296
 H        -3.005635         0.797243        -0.460418
 H        -2.400395        -1.565070        -0.997395
 H        -1.185064        -0.624223        -1.993578
 H         0.847551        -2.143459         0.658379
 H        -0.710039         1.896910         0.607413
 H        -0.378291         1.644312        -1.148438
