19
Iteration:  2855charge 0 multiplicity 1
 C        -2.882456        -1.362934         1.585719
 C        -1.771822        -0.388545         1.063718
 C        -1.945599         0.246906        -0.245408
 C        -1.592544        -1.024590        -0.976183
 C        -0.587478        -1.178531         0.183093
 O        -0.206799        -2.515475         0.431864
 C         0.284360         0.045756         0.136205
 O         1.438764         0.159276         0.512815
 C        -0.685596         1.138040        -0.253815
 H        -3.388887        -1.029089         2.561601
 H        -3.691198        -1.609610         0.944825
 H        -2.353633        -2.258940         1.809608
 H        -1.201057         0.007078         1.896120
 H        -2.882850         0.842864        -0.491081
 H        -2.262977        -1.885804        -0.868704
 H        -1.188632        -0.833951        -2.025493
 H         0.567472        -2.581761         1.002163
 H        -0.720671         1.890733         0.522048
 H        -0.552865         1.564065        -1.244542
