19
Iteration:  1239
 C        -2.884691        -1.518894         1.580337
 C        -1.759125        -0.517596         1.185209
 C        -2.001797         0.453712        -0.067993
 C        -1.718520        -0.867642        -0.978834
 C        -0.666967        -1.193448         0.144705
 O        -0.149463        -2.470121         0.301460
 C         0.330020         0.021949         0.148027
 O         1.520178         0.005346         0.450922
 C        -0.619307         1.183843        -0.246120
 H        -3.266568        -2.006623         0.742311
 H        -2.480891        -2.258743         2.316099
 H        -3.830129        -1.155496         1.975174
 H        -1.420388        -0.061758         2.146716
 H        -2.861889         1.094457        -0.244123
 H        -2.570583        -1.512383        -0.912529
 H        -1.426287        -0.516957        -1.930114
 H         0.664919        -2.430717         0.921874
 H        -0.533384         2.175631         0.228665
 H        -0.493152         1.478954        -1.326357
