19
Iteration:  2638charge 0 multiplicity 1
 C        -2.862919        -1.447811         1.643146
 C        -1.766363        -0.506229         1.124756
 C        -1.986588         0.401263        -0.140953
 C        -1.622919        -0.905223        -0.997016
 C        -0.707778        -1.206036         0.116480
 O        -0.077913        -2.428244         0.423335
 C         0.282494         0.049992         0.127934
 O         1.426810        -0.029987         0.508914
 C        -0.690736         1.153701        -0.302528
 H        -2.954599        -2.461597         1.011723
 H        -2.815240        -1.710781         2.664060
 H        -3.858983        -1.044488         1.495257
 H        -1.265398         0.063386         2.064372
 H        -2.935966         1.025146        -0.265591
 H        -2.573695        -1.447521        -1.186807
 H        -1.150037        -0.794895        -1.966017
 H         0.934643        -2.134863         0.545287
 H        -0.444916         2.038251         0.357866
 H        -0.397691         1.435203        -1.351607
