19
Iteration:  1164charge 0 multiplicity 1
 C        -2.927455        -1.475167         1.723363
 C        -1.777206        -0.537985         1.173489
 C        -2.002406         0.422799        -0.151258
 C        -1.588419        -0.802390        -1.075328
 C        -0.701599        -1.209426         0.120760
 O        -0.096000        -2.480574         0.345619
 C         0.246736        -0.012277         0.145155
 O         1.451196        -0.013088         0.365596
 C        -0.631851         1.182491        -0.144644
 H        -3.587333        -2.047557         0.898730
 H        -2.561273        -2.276946         2.501523
 H        -3.587200        -0.870726         2.364831
 H        -1.373650        -0.077758         2.080214
 H        -2.825977         1.106399        -0.329155
 H        -2.428822        -1.495559        -1.232828
 H        -0.883003        -0.549516        -1.920226
 H         0.905745        -2.249604         0.471258
 H        -0.436982         2.010496         0.576511
 H        -0.456959         1.642757        -1.151950
