19
Iteration:  4544
 C        -2.902338        -1.316849         1.557720
 C        -1.727832        -0.515567         1.175013
 C        -2.016699         0.398154        -0.110574
 C        -1.735276        -1.014944        -0.984942
 C        -0.646399        -1.242319         0.226001
 O         0.001876        -2.426131         0.297186
 C         0.279162         0.008356         0.018569
 O         1.394977        -0.038713         0.548799
 C        -0.606158         1.197555        -0.277827
 H        -3.291462        -1.947982         0.864058
 H        -2.709824        -1.995199         2.408195
 H        -3.538527        -0.546663         1.968758
 H        -1.430659         0.029649         2.118245
 H        -2.934592         0.939067        -0.279910
 H        -2.581831        -1.749741        -0.915834
 H        -1.436088        -0.916381        -2.018208
 H         0.846294        -2.092099         0.813713
 H        -0.519065         1.922357         0.554847
 H        -0.618625         1.730923        -1.159031
