19
Iteration:  2437
 C        -2.991332        -1.375537         1.441929
 C        -1.789174        -0.567805         1.140370
 C        -1.918540         0.396743        -0.068964
 C        -1.683803        -0.863270        -0.999004
 C        -0.684958        -1.178308         0.201865
 O        -0.016765        -2.488626         0.517115
 C         0.267377         0.039628         0.145214
 O         1.495118        -0.011688         0.080757
 C        -0.685622         1.122010         0.046656
 H        -3.752495        -0.708011         1.641345
 H        -3.363087        -2.199752         0.665206
 H        -2.847139        -1.897486         2.427153
 H        -1.430620        -0.092190         2.171246
 H        -2.777406         1.033214        -0.209133
 H        -2.552606        -1.497805        -0.871927
 H        -1.232873        -0.658938        -2.024587
 H         0.942832        -2.201263         0.676955
 H        -0.493046         1.631856         0.986780
 H        -0.446424         1.823407        -0.793576
