19
Iteration:  3364
 C        -3.098315        -1.455044         1.431582
 C        -1.762670        -0.584645         1.235156
 C        -1.960300         0.324087        -0.166629
 C        -1.602353        -0.968907        -0.938107
 C        -0.638612        -1.161507         0.315896
 O        -0.022398        -2.348483         0.583322
 C         0.292421         0.077460         0.125987
 O         1.499993        -0.078710         0.155473
 C        -0.653351         1.279611        -0.135947
 H        -3.687487        -1.458674         0.613053
 H        -2.989969        -2.568309         1.594799
 H        -3.767450        -0.984103         2.158837
 H        -1.758481         0.163631         2.072399
 H        -2.959767         0.807633        -0.323430
 H        -2.466291        -1.654408        -1.087207
 H        -0.931079        -0.821625        -1.852889
 H         0.920011        -2.456984         0.230740
 H        -0.447323         2.047378         0.604958
 H        -0.602188         1.741456        -1.100540
