19
Iteration:  3634
 C        -2.990870        -1.604397         1.469457
 C        -1.896172        -0.475753         1.100040
 C        -1.941314         0.373860        -0.124850
 C        -1.567911        -0.788288        -1.038560
 C        -0.711411        -1.128504         0.368782
 O        -0.122969        -2.358649         0.706342
 C         0.341392        -0.008766         0.125924
 O         1.550509        -0.077119         0.059229
 C        -0.667071         1.196297        -0.111886
 H        -3.550574        -2.157232         0.591888
 H        -2.427864        -2.357185         2.052776
 H        -3.765218        -1.209807         2.203959
 H        -1.849299        -0.016571         2.156764
 H        -2.724972         0.993023        -0.511179
 H        -2.141414        -1.640626        -1.299254
 H        -0.803602        -0.493358        -1.824387
 H         0.754564        -2.481087         0.342267
 H        -0.646661         1.945367         0.781484
 H        -0.619179         1.733327        -1.066883
