19
Iteration:   530
 C        -2.844899        -1.582678         1.400876
 C        -1.785017        -0.559941         1.156370
 C        -1.923124         0.459792         0.026455
 C        -1.621707        -0.741024        -0.941960
 C        -0.701249        -1.219883         0.270495
 O        -0.250276        -2.439162         0.639887
 C         0.286169        -0.037893         0.133623
 O         1.511159        -0.016844         0.109646
 C        -0.652652         1.248101        -0.198702
 H        -2.764015        -2.283806         0.576387
 H        -2.569853        -2.192803         2.246266
 H        -3.788657        -0.931306         1.447033
 H        -1.365329        -0.291050         2.159979
 H        -2.894087         0.862823        -0.186724
 H        -2.470843        -1.287610        -1.146055
 H        -1.196442        -0.441714        -1.946156
 H         0.756899        -2.571424         0.401964
 H        -0.492740         2.088026         0.635453
 H        -0.618260         1.661840        -1.200254
