19
Iteration:   115charge 0 multiplicity 1
 C        -3.078565        -1.411588         1.805792
 C        -1.845833        -0.560457         1.188011
 C        -1.975042         0.412016        -0.141814
 C        -1.631149        -0.856074        -1.047749
 C        -0.647741        -1.204252         0.177052
 O         0.011340        -2.351869         0.154438
 C         0.320457         0.043451         0.215353
 O         1.500357        -0.170883         0.371934
 C        -0.646379         1.189135        -0.144594
 H        -2.838227        -2.430368         1.452797
 H        -2.972402        -1.526714         2.920030
 H        -4.017588        -0.987402         1.337466
 H        -1.428480        -0.110042         2.096490
 H        -2.910800         1.052393        -0.373913
 H        -2.515932        -1.576627        -0.787785
 H        -1.338410        -0.607302        -2.087204
 H         0.951435        -2.310810         0.256067
 H        -0.647839         2.121512         0.493240
 H        -0.547034         1.502572        -1.218500
