19
Iteration:  4871
 C        -2.971286        -1.346376         1.668876
 C        -1.791387        -0.549419         1.141600
 C        -2.034616         0.372808        -0.199116
 C        -1.646168        -0.883419        -1.031176
 C        -0.673868        -1.263679         0.189748
 O        -0.018958        -2.490316         0.380165
 C         0.322599         0.053510         0.095834
 O         1.526712         0.038160         0.420975
 C        -0.702079         1.154350        -0.197453
 H        -3.548394        -2.009562         0.912673
 H        -2.724653        -2.011385         2.501672
 H        -3.727641        -0.586561         2.002977
 H        -1.263795        -0.142315         2.113872
 H        -3.001864         0.753309        -0.451635
 H        -2.606290        -1.690551        -0.956754
 H        -1.225098        -0.806085        -2.052747
 H         0.879996        -2.237757         0.702038
 H        -0.639426         1.920720         0.627607
 H        -0.434257         1.704022        -1.099837
