19
Iteration:  2327
 C        -2.843832        -1.426836         1.617868
 C        -1.642362        -0.569012         1.196086
 C        -1.893367         0.406438        -0.044805
 C        -1.724049        -0.778267        -1.046047
 C        -0.669262        -1.210692         0.087930
 O        -0.250497        -2.548441         0.303439
 C         0.294597         0.010972         0.111792
 O         1.458517         0.006515         0.425623
 C        -0.703303         1.207034        -0.138595
 H        -3.045152        -2.121343         0.870287
 H        -2.276312        -2.016021         2.518922
 H        -3.666536        -0.742711         1.956622
 H        -1.163778        -0.082635         2.054803
 H        -2.869728         0.942082        -0.000619
 H        -2.399552        -1.625247        -1.128297
 H        -1.203492        -0.435294        -1.973689
 H         0.702166        -2.476188         0.427669
 H        -0.721073         2.051678         0.554749
 H        -0.646457         1.610668        -1.217766
