19
Iteration:  4021charge 0 multiplicity 1
 C        -2.819600        -1.316504         1.617874
 C        -1.734693        -0.495332         1.090818
 C        -1.942758         0.421037        -0.250779
 C        -1.726481        -1.002414        -1.005392
 C        -0.683602        -1.250090         0.129574
 O         0.037129        -2.418205         0.310657
 C         0.204386        -0.000860         0.162219
 O         1.347776        -0.028277         0.551649
 C        -0.676488         1.154280        -0.186977
 H        -3.599448        -1.635582         0.935049
 H        -2.431239        -2.206679         2.268084
 H        -3.484688        -0.843387         2.362368
 H        -1.221902         0.053720         1.879825
 H        -2.910726         1.007454        -0.314276
 H        -2.511014        -1.735155        -0.913668
 H        -1.282550        -1.081851        -2.086011
 H         0.616433        -2.051498         1.081915
 H        -0.634148         1.908556         0.579886
 H        -0.283096         1.717771        -1.141839
