19
Iteration:  2579
 C        -3.024803        -1.454890         1.676461
 C        -1.785775        -0.534843         1.132493
 C        -1.960616         0.395617        -0.138765
 C        -1.563683        -0.871218        -0.999142
 C        -0.591053        -1.226284         0.206165
 O        -0.105747        -2.467163         0.331897
 C         0.280761         0.013900         0.156721
 O         1.467209         0.060816         0.388352
 C        -0.686213         1.140591        -0.253117
 H        -2.886364        -2.463516         1.929985
 H        -3.384991        -0.823322         2.642270
 H        -3.940867        -1.344225         0.987178
 H        -1.425237         0.007451         2.033485
 H        -2.925028         0.893674        -0.163174
 H        -2.353807        -1.623021        -1.061966
 H        -0.950991        -0.555803        -1.923775
 H         0.759993        -2.451540         0.636416
 H        -0.506203         1.953659         0.426488
 H        -0.326987         1.465880        -1.263654
