19
Iteration:  4570
 C        -2.921304        -1.342274         1.692568
 C        -1.714988        -0.539028         1.138166
 C        -2.016258         0.377310        -0.197972
 C        -1.692528        -0.875931        -1.020923
 C        -0.623505        -1.266457         0.101712
 O        -0.069765        -2.416045         0.381407
 C         0.266827        -0.001252         0.208006
 O         1.442957         0.007191         0.516042
 C        -0.644671         1.120108        -0.267880
 H        -3.423058        -1.979234         0.797410
 H        -2.608842        -2.203756         2.285911
 H        -3.558753        -0.707350         2.321300
 H        -1.274879        -0.033178         1.950866
 H        -2.953702         0.831940        -0.550006
 H        -2.450736        -1.601386        -1.018160
 H        -1.548578        -0.575469        -2.034638
 H         0.869959        -2.182591         0.264752
 H        -0.632486         2.024244         0.313807
 H        -0.366326         1.411390        -1.385731
