19
Iteration:  3015charge 0 multiplicity 1
 C        -3.131933        -1.563129         1.373961
 C        -1.953086        -0.455742         1.253295
 C        -1.938002         0.399733        -0.285082
 C        -1.521007        -0.964346        -0.832479
 C        -0.613653        -1.124085         0.429547
 O        -0.129987        -2.400584         0.686125
 C         0.374491         0.033591         0.155523
 O         1.610299         0.028914        -0.063883
 C        -0.687671         1.170459        -0.112862
 H        -4.086784        -1.213879         1.019286
 H        -2.764719        -2.556040         0.816516
 H        -3.179304        -1.881055         2.482691
 H        -1.745377         0.095538         2.175389
 H        -2.938614         0.840276        -0.446005
 H        -2.252941        -1.747356        -0.962581
 H        -0.934062        -0.936462        -1.762330
 H         0.829123        -2.210103         0.346629
 H        -0.694075         1.921813         0.756036
 H        -0.398238         1.795582        -1.022834
