19
Iteration:  4516
 C        -2.920630        -1.359232         1.640609
 C        -1.804492        -0.475918         1.174170
 C        -1.989225         0.360968        -0.102479
 C        -1.596785        -0.905266        -1.064128
 C        -0.623590        -1.222469         0.171534
 O        -0.042392        -2.440286         0.356512
 C         0.246915         0.021900         0.192503
 O         1.435893        -0.045380         0.382703
 C        -0.674842         1.130094        -0.182424
 H        -3.349376        -2.106512         0.745204
 H        -2.638298        -1.814516         2.594199
 H        -3.790370        -0.689631         1.889854
 H        -1.548920         0.121278         2.055958
 H        -2.904863         0.960302        -0.290638
 H        -2.409626        -1.590517        -1.033354
 H        -1.165988        -0.780476        -2.138982
 H         0.953604        -2.256119         0.597211
 H        -0.670042         2.107641         0.305189
 H        -0.552587         1.327736        -1.365966
