19
Iteration:  1090
 C        -3.035850        -1.497210         1.597470
 C        -1.782551        -0.614940         1.146952
 C        -1.975729         0.437283        -0.084418
 C        -1.560260        -0.786853        -1.034709
 C        -0.727466        -1.204274         0.226760
 O        -0.027817        -2.352317         0.484783
 C         0.252288        -0.048512         0.157628
 O         1.474436        -0.061324         0.117922
 C        -0.661687         1.183893        -0.036002
 H        -3.529257        -2.032960         0.750500
 H        -3.008428        -2.364844         2.182006
 H        -3.590108        -0.782541         2.154109
 H        -1.344587        -0.155508         2.075424
 H        -2.893949         0.991143        -0.251689
 H        -2.370130        -1.374975        -1.440976
 H        -0.841227        -0.557353        -1.917165
 H         0.965573        -2.148985         0.362738
 H        -0.543536         1.905152         0.795698
 H        -0.231495         1.618258        -0.899746
