19
Iteration:  1454
 C        -2.986626        -1.342173         1.679096
 C        -1.763681        -0.517559         1.128725
 C        -1.965462         0.408945        -0.126904
 C        -1.686203        -0.913145        -0.998164
 C        -0.623537        -1.186956         0.077588
 O         0.034253        -2.391281         0.272504
 C         0.258520        -0.024674         0.125133
 O         1.417742        -0.118396         0.435742
 C        -0.665561         1.161053        -0.082663
 H        -3.585608        -1.897945         0.994230
 H        -2.580280        -2.046336         2.451070
 H        -3.767465        -0.601095         1.994872
 H        -1.320105         0.074633         1.902094
 H        -2.990063         0.708108        -0.308733
 H        -2.575355        -1.560687        -0.945316
 H        -1.385136        -0.911253        -2.081593
 H         0.974511        -2.164417         0.473670
 H        -0.488903         1.873364         0.678291
 H        -0.453615         1.763933        -0.986895
