19
Iteration:   124charge 0 multiplicity 1
 C        -3.060575        -1.420587         1.720025
 C        -1.830559        -0.492568         1.217859
 C        -2.001999         0.427600        -0.039813
 C        -1.685575        -0.847594        -0.984164
 C        -0.591637        -1.139324         0.136481
 O         0.036871        -2.430649         0.169862
 C         0.279905        -0.061595         0.163643
 O         1.511991        -0.103384         0.370432
 C        -0.661056         1.173020        -0.171017
 H        -3.083030        -2.419036         1.235780
 H        -3.216785        -1.537035         2.831668
 H        -4.041256        -1.020833         1.392879
 H        -1.347245         0.070344         2.027901
 H        -2.888181         1.092305        -0.141155
 H        -2.467773        -1.707198        -1.132730
 H        -1.280901        -0.721460        -2.030019
 H         0.886468        -2.180785         0.513164
 H        -0.499839         2.000712         0.506428
 H        -0.353701         1.410853        -1.228545
