19
Iteration:  1908charge 0 multiplicity 1
 C        -3.078557        -1.428513         1.621576
 C        -1.809841        -0.653495         1.120514
 C        -1.962098         0.347209        -0.148385
 C        -1.555966        -0.724279        -1.131786
 C        -0.676931        -1.203440         0.207443
 O        -0.049155        -2.376178         0.575800
 C         0.275113        -0.009435         0.114177
 O         1.476168        -0.083774         0.086198
 C        -0.648717         1.203646         0.027200
 H        -3.763703        -2.128484         0.972454
 H        -2.569562        -2.129726         2.206949
 H        -3.542359        -0.823208         2.372587
 H        -1.402715        -0.132311         2.112904
 H        -2.877449         0.819890        -0.584470
 H        -2.381684        -1.401922        -1.263448
 H        -0.914372        -0.518847        -1.963992
 H         0.888066        -2.279614         0.497206
 H        -0.552863         1.691899         1.095273
 H        -0.367512         1.992396        -0.634132
