19
Iteration:  4594charge 0 multiplicity 1
 C        -2.895065        -1.416117         1.725222
 C        -1.791330        -0.461475         1.074200
 C        -1.949516         0.374376        -0.158859
 C        -1.543248        -0.891735        -1.064849
 C        -0.682416        -1.245672         0.203987
 O        -0.164342        -2.447057         0.393891
 C         0.266216         0.026592         0.107020
 O         1.434179         0.000554         0.437969
 C        -0.681916         1.150495        -0.227387
 H        -3.476041        -2.037904         0.999262
 H        -2.287012        -2.239783         2.164845
 H        -3.506444        -0.960973         2.562448
 H        -1.427958         0.153946         1.880969
 H        -2.932375         0.913845        -0.258623
 H        -2.290170        -1.662508        -1.315394
 H        -0.903227        -0.701946        -1.950487
 H         0.760607        -2.199898         0.629312
 H        -0.553771         2.020029         0.489969
 H        -0.514417         1.534916        -1.283104
