19
Iteration:  2682charge 0 multiplicity 1
 C        -2.866547        -1.535777         1.532487
 C        -1.838639        -0.434710         1.087714
 C        -1.986600         0.430638        -0.202070
 C        -1.630193        -0.906224        -0.999650
 C        -0.710854        -1.175577         0.187656
 O        -0.072594        -2.328623         0.614001
 C         0.270267        -0.054084         0.139409
 O         1.496306        -0.086285         0.303329
 C        -0.678150         1.207772        -0.167099
 H        -3.543367        -2.022537         0.702258
 H        -2.345279        -2.312519         1.990929
 H        -3.569175        -1.188198         2.262578
 H        -1.412164        -0.000614         2.056921
 H        -2.982393         0.876078        -0.475094
 H        -2.362942        -1.705753        -1.157900
 H        -1.021288        -0.848086        -1.878529
 H         0.860382        -2.222572         0.644026
 H        -0.748821         2.089307         0.525214
 H        -0.500726         1.705836        -1.144018
