19
Iteration:  3111charge 0 multiplicity 1
 C        -2.953929        -1.515158         1.567606
 C        -1.824236        -0.404723         1.140148
 C        -1.945672         0.333131        -0.193552
 C        -1.638520        -0.982112        -0.942529
 C        -0.592816        -1.224502         0.163931
 O        -0.199975        -2.484096         0.429491
 C         0.301489         0.059037         0.202665
 O         1.530281         0.138144         0.391450
 C        -0.626643         1.194354        -0.218307
 H        -3.685905        -1.705122         0.840852
 H        -2.443315        -2.468517         1.822009
 H        -3.464323        -1.064789         2.458825
 H        -1.381089         0.202381         1.937065
 H        -2.927015         0.792721        -0.394291
 H        -2.573215        -1.538732        -0.745235
 H        -1.358635        -1.100155        -2.010544
 H         0.755516        -2.452665         0.473348
 H        -0.743366         2.207420         0.198886
 H        -0.232954         1.261954        -1.210825
