19
Iteration:  2338
 C        -2.754261        -1.435121         1.579316
 C        -1.630531        -0.594317         1.137514
 C        -2.034114         0.360775        -0.007021
 C        -1.731095        -0.826978        -1.001819
 C        -0.664894        -1.201393         0.084126
 O        -0.277141        -2.488791         0.340051
 C         0.311296         0.001266         0.040634
 O         1.473078         0.045850         0.454839
 C        -0.627522         1.217571        -0.125644
 H        -3.257362        -1.865076         0.767631
 H        -2.679502        -2.319840         2.426693
 H        -3.585876        -0.784233         1.987150
 H        -1.060243        -0.194783         1.983387
 H        -2.784687         1.131169        -0.132903
 H        -2.579021        -1.512836        -1.131491
 H        -1.474233        -0.608156        -2.070283
 H         0.593300        -2.580385         0.602074
 H        -0.425593         1.956608         0.654222
 H        -0.446169         1.715439        -1.149683
