19
Iteration:   241charge 0 multiplicity 1
 C        -2.901198        -1.513907         1.484329
 C        -1.809169        -0.529410         1.153539
 C        -2.049930         0.393697        -0.131935
 C        -1.635347        -0.825322        -1.010808
 C        -0.662193        -1.137157         0.232894
 O        -0.117516        -2.357571         0.525260
 C         0.319816         0.031016         0.143591
 O         1.528065        -0.183107         0.079459
 C        -0.668584         1.265371         0.027482
 H        -3.528570        -1.586939         0.588124
 H        -2.503912        -2.494496         1.810222
 H        -3.564622        -1.204788         2.238155
 H        -1.352583        -0.159199         2.097267
 H        -2.984862         0.929372        -0.281579
 H        -2.271897        -1.698057        -1.130324
 H        -1.178504        -0.574328        -1.919561
 H         0.665852        -2.317359         1.034214
 H        -0.689660         1.662016         1.017269
 H        -0.414548         1.996909        -0.786055
