19
Iteration:  1034
 C        -2.830811        -1.574104         1.481645
 C        -1.801137        -0.543151         1.155949
 C        -1.969728         0.433387        -0.044108
 C        -1.626777        -0.809719        -1.015511
 C        -0.643913        -1.127390         0.235390
 O        -0.236991        -2.460680         0.508784
 C         0.274059         0.061100         0.159604
 O         1.475353        -0.018168         0.135029
 C        -0.612308         1.191911        -0.081621
 H        -3.296844        -2.288664         0.735315
 H        -2.329681        -2.177993         2.195182
 H        -3.773756        -1.286485         1.831721
 H        -1.599683        -0.115699         2.171960
 H        -2.722005         1.089730        -0.392933
 H        -2.518841        -1.458993        -1.162345
 H        -1.112540        -0.637859        -2.036470
 H         0.618091        -2.297975         0.994521
 H        -0.310518         1.760594         0.812162
 H        -0.379766         1.607679        -1.009678
