19
Iteration:  3118
 C        -2.880166        -1.439849         1.573312
 C        -1.796801        -0.451275         1.107897
 C        -1.966097         0.377576        -0.150872
 C        -1.643575        -0.976596        -0.974709
 C        -0.606251        -1.193770         0.161585
 O        -0.207222        -2.532429         0.431798
 C         0.329123         0.041884         0.176538
 O         1.472731         0.145253         0.432387
 C        -0.663629         1.163113        -0.251686
 H        -3.616397        -1.834677         0.753775
 H        -2.396620        -2.327386         1.847906
 H        -3.392516        -1.029573         2.422312
 H        -1.456793         0.072431         2.061831
 H        -2.860472         0.944083        -0.319722
 H        -2.421000        -1.791288        -0.809981
 H        -1.246770        -0.944572        -1.988442
 H         0.779406        -2.577443         0.684681
 H        -0.707085         2.115023         0.264352
 H        -0.338246         1.434699        -1.304838
