19
Iteration:  4294charge 0 multiplicity 1
 C        -2.760746        -1.473489         1.603317
 C        -1.688237        -0.482921         1.074625
 C        -1.990077         0.350774        -0.159815
 C        -1.738822        -0.897400        -1.035771
 C        -0.679981        -1.175586         0.101680
 O        -0.152104        -2.465856         0.445725
 C         0.304886         0.031366         0.067087
 O         1.386443        -0.012465         0.634860
 C        -0.623139         1.216363        -0.299983
 H        -2.978237        -2.410249         1.063275
 H        -2.345619        -1.933881         2.468048
 H        -3.637938        -0.940364         1.755294
 H        -1.308617        -0.018577         2.011133
 H        -2.909488         0.872676        -0.450033
 H        -2.768930        -1.363881        -1.066529
 H        -1.336450        -0.712300        -2.066209
 H         0.645225        -2.201600         0.963130
 H        -0.613773         2.139510         0.339656
 H        -0.518941         1.504487        -1.374204
