19
Iteration:  4770charge 0 multiplicity 1
 C        -2.923301        -1.451752         1.526131
 C        -1.796426        -0.490733         1.149581
 C        -2.014586         0.421387        -0.102744
 C        -1.537998        -0.843881        -1.036127
 C        -0.608027        -1.245097         0.182652
 O        -0.138300        -2.464463         0.567530
 C         0.271322         0.003741         0.138670
 O         1.470860        -0.018585         0.306414
 C        -0.715657         1.209541        -0.241151
 H        -3.336872        -2.031655         0.781981
 H        -2.297586        -2.184017         2.153399
 H        -3.682780        -1.055376         2.254987
 H        -1.416013        -0.006921         2.077460
 H        -2.975320         1.022589        -0.307109
 H        -2.335294        -1.712318        -0.889145
 H        -1.122493        -0.641591        -1.989710
 H         0.807643        -2.432518         0.434328
 H        -0.649689         2.106551         0.464225
 H        -0.553248         1.539760        -1.224904
