19
Iteration:   604charge 0 multiplicity 1
 C        -3.004586        -1.292965         1.672067
 C        -1.734382        -0.593376         1.171786
 C        -1.958061         0.310717        -0.092600
 C        -1.607013        -0.783349        -1.058846
 C        -0.712424        -1.288228         0.047143
 O         0.006379        -2.409293         0.415798
 C         0.244941        -0.030559         0.081436
 O         1.446444        -0.045715         0.327410
 C        -0.712708         1.140471        -0.072016
 H        -3.686221        -1.660777         0.950844
 H        -2.645757        -2.067753         2.361868
 H        -3.433468        -0.531525         2.318259
 H        -1.256657        -0.169122         2.037480
 H        -2.907856         0.784348        -0.265103
 H        -2.340812        -1.462362        -1.361304
 H        -1.038863        -0.431967        -1.929632
 H         0.962487        -2.075639         0.257648
 H        -0.692739         1.673695         0.843784
 H        -0.529407         1.774692        -0.955529
