19
Iteration:  2554charge 0 multiplicity 1
 C        -2.922004        -1.486045         1.566683
 C        -1.811749        -0.506843         1.162321
 C        -1.940318         0.367206        -0.133427
 C        -1.608797        -0.841947        -1.052358
 C        -0.717746        -1.237414         0.264792
 O        -0.093452        -2.377245         0.464073
 C         0.265121         0.018579         0.141539
 O         1.476228        -0.084457         0.304672
 C        -0.663166         1.215836        -0.171235
 H        -2.452721        -2.270842         2.180989
 H        -3.681216        -0.964980         2.243270
 H        -3.495409        -1.959708         0.732227
 H        -1.471498        -0.006095         2.011349
 H        -2.891531         0.853964        -0.268065
 H        -2.441202        -1.536351        -1.152099
 H        -1.063519        -0.375232        -1.916867
 H         0.890866        -2.145105         0.405049
 H        -0.412023         2.102477         0.481805
 H        -0.458853         1.447356        -1.214392
