19
Iteration:  3597charge 0 multiplicity 1
 C        -2.991355        -1.505028         1.250177
 C        -1.835429        -0.565123         1.184245
 C        -1.881927         0.406259        -0.080145
 C        -1.593117        -0.868637        -0.921769
 C        -0.648604        -1.167110         0.338829
 O        -0.090544        -2.333456         0.753909
 C         0.256952         0.015910         0.124582
 O         1.450024        -0.079922        -0.000626
 C        -0.649504         1.187494        -0.082120
 H        -3.643192        -1.804778         0.403547
 H        -2.569962        -2.460666         1.618640
 H        -3.524643        -1.045114         2.055446
 H        -1.568312        -0.031002         2.076316
 H        -2.859152         0.917836        -0.193710
 H        -2.281946        -1.770133        -1.006116
 H        -0.966542        -0.751708        -1.875623
 H         0.812384        -2.015095         0.631555
 H        -0.755147         1.928117         0.658680
 H        -0.414252         1.716093        -1.042858
