19
Iteration:   934charge 0 multiplicity 1
 C        -2.894473        -1.333859         1.782234
 C        -1.799408        -0.596916         1.093986
 C        -2.044607         0.297363        -0.146887
 C        -1.609185        -0.854143        -1.095713
 C        -0.676424        -1.140755         0.201101
 O        -0.007196        -2.373492         0.243674
 C         0.254436         0.017565         0.122251
 O         1.432933        -0.134732         0.431869
 C        -0.652472         1.152639        -0.146189
 H        -3.642414        -1.828718         1.012000
 H        -2.659773        -2.088282         2.559602
 H        -3.641800        -0.695838         2.325466
 H        -1.364164        -0.122965         2.027289
 H        -2.990007         0.840743        -0.369155
 H        -2.563986        -1.514262        -1.093147
 H        -1.017966        -0.542684        -2.006778
 H         0.965540        -2.036706         0.543272
 H        -0.547992         1.934234         0.650558
 H        -0.416784         1.789225        -1.053302
