19
Iteration:   536
 C        -2.832709        -1.609774         1.387149
 C        -1.785391        -0.549852         1.180770
 C        -2.025904         0.463614        -0.006568
 C        -1.603622        -0.765945        -0.900090
 C        -0.700912        -1.160602         0.298406
 O        -0.258767        -2.474875         0.610722
 C         0.311148        -0.049305         0.096247
 O         1.528707        -0.018950         0.119091
 C        -0.615196         1.281212        -0.190902
 H        -2.914039        -2.354442         0.582190
 H        -2.589550        -2.103664         2.357765
 H        -3.742373        -1.089912         1.588554
 H        -1.383040        -0.184783         2.123137
 H        -2.902998         1.127646        -0.236264
 H        -2.490995        -1.409918        -1.254174
 H        -1.075029        -0.446506        -1.782997
 H         0.704609        -2.476403         0.378059
 H        -0.556829         1.982776         0.563625
 H        -0.476428         1.657583        -1.231741
