19
Iteration:  4991
 C        -2.971934        -1.488451         1.438081
 C        -1.780598        -0.551294         1.140450
 C        -2.017505         0.377743        -0.163523
 C        -1.501567        -0.839985        -0.948198
 C        -0.641895        -1.126992         0.336103
 O        -0.104433        -2.401422         0.613039
 C         0.284702        -0.027575         0.161869
 O         1.499145        -0.062718         0.068934
 C        -0.739723         1.209945        -0.109468
 H        -3.638198        -1.805288         0.627460
 H        -2.620613        -2.342039         1.982059
 H        -3.686332        -0.902633         2.093120
 H        -1.451384        -0.001108         2.092315
 H        -2.909489         0.950815        -0.248530
 H        -2.302017        -1.744348        -1.038988
 H        -1.144791        -0.762023        -1.915966
 H         0.856214        -2.226919         0.693773
 H        -0.742968         2.045053         0.632320
 H        -0.386155         1.686467        -0.954465
