19
Iteration:   194
 C        -2.873501        -1.628270         1.654695
 C        -1.822203        -0.474933         1.156932
 C        -2.023695         0.434928        -0.183796
 C        -1.565117        -0.681356        -1.128655
 C        -0.683088        -1.140232         0.272846
 O        -0.224929        -2.450531         0.512434
 C         0.312008        -0.040882         0.172652
 O         1.539736        -0.017510         0.176826
 C        -0.635378         1.116619        -0.081582
 H        -3.439847        -2.106679         0.852666
 H        -2.341462        -2.319988         2.274854
 H        -3.706157        -1.242676         2.320250
 H        -1.679722         0.112605         2.049354
 H        -2.853387         1.136392        -0.202882
 H        -2.247374        -1.412598        -1.344469
 H        -0.943312        -0.522049        -2.006154
 H         0.581656        -2.449728        -0.031844
 H        -0.680407         1.769702         0.853423
 H        -0.371393         1.607863        -1.010443
