19
Iteration:   622charge 0 multiplicity 1
 C        -2.992427        -1.273973         1.656358
 C        -1.747657        -0.649528         1.123038
 C        -2.050704         0.335997        -0.033811
 C        -1.707778        -0.877277        -1.087155
 C        -0.615415        -1.218656         0.199974
 O         0.014178        -2.399601         0.296502
 C         0.291873         0.009464         0.154600
 O         1.500836        -0.060606         0.384367
 C        -0.682372         1.162277        -0.132818
 H        -3.701375        -1.569966         0.821434
 H        -3.043287        -2.266435         2.174034
 H        -3.508639        -0.503264         2.223545
 H        -1.289816        -0.151965         2.038848
 H        -2.976081         0.957309         0.044440
 H        -2.577766        -1.718093        -1.084018
 H        -1.258588        -0.621961        -2.065616
 H         1.035165        -2.207409         0.344405
 H        -0.498389         2.118775         0.362762
 H        -0.496456         1.574136        -1.175588
