19
Iteration:  2399
 C        -2.919548        -1.501835         1.650644
 C        -1.847092        -0.541059         1.148717
 C        -1.969969         0.415639        -0.071385
 C        -1.526667        -0.799860        -1.027425
 C        -0.681945        -1.132252         0.277655
 O        -0.087474        -2.328269         0.346283
 C         0.255665         0.031074         0.154993
 O         1.452807        -0.217294         0.250297
 C        -0.661324         1.158390        -0.134557
 H        -4.048974        -1.262746         1.222964
 H        -2.774116        -2.471593         1.370671
 H        -2.927727        -1.475461         2.729859
 H        -1.246328        -0.204303         2.026638
 H        -2.806852         1.096556        -0.388821
 H        -2.360329        -1.529579        -1.217201
 H        -1.137983        -0.407295        -1.989291
 H         0.943040        -2.136921         0.254974
 H        -0.789154         1.954967         0.656234
 H        -0.621169         1.712776        -1.055367
