19
Iteration:  4249charge 0 multiplicity 1
 C        -2.848637        -1.430683         1.686730
 C        -1.832915        -0.515282         1.115884
 C        -1.942966         0.320625        -0.255113
 C        -1.594573        -0.915157        -1.004626
 C        -0.667157        -1.166466         0.201394
 O        -0.131729        -2.394949         0.362928
 C         0.267978         0.027604         0.168761
 O         1.428753        -0.063137         0.537873
 C        -0.670223         1.230444        -0.287367
 H        -3.354519        -1.955247         0.914310
 H        -2.379663        -2.264417         2.245576
 H        -3.582089        -0.822448         2.136106
 H        -1.352583         0.163767         1.869516
 H        -3.020432         0.678019        -0.382020
 H        -2.368265        -1.707452        -1.070560
 H        -1.157583        -0.828323        -2.010654
 H         0.864197        -2.156108         0.267596
 H        -0.556365         2.102315         0.522286
 H        -0.521420         1.619248        -1.266059
