19
Iteration:  3206charge 0 multiplicity 1
 C        -2.919066        -1.360544         1.653248
 C        -1.900828        -0.366724         1.151496
 C        -2.021569         0.382928        -0.147023
 C        -1.624780        -1.000883        -0.931705
 C        -0.600637        -1.219888         0.156982
 O         0.010056        -2.440001         0.261846
 C         0.213008        -0.034960         0.189486
 O         1.431919        -0.041194         0.452640
 C        -0.626460         1.197038        -0.247803
 H        -2.883508        -2.279583         0.985759
 H        -2.592354        -1.676657         2.585874
 H        -3.932027        -0.965381         1.621319
 H        -1.511483         0.299810         1.900703
 H        -3.017128         0.720573        -0.282186
 H        -2.438877        -1.765692        -0.898103
 H        -1.120972        -1.037421        -1.875637
 H         0.894190        -2.115302         0.585351
 H        -0.588307         2.057237         0.440109
 H        -0.253119         1.411861        -1.251129
