19
Iteration:  4040charge 0 multiplicity 1
 C        -2.939336        -1.310591         1.627109
 C        -1.751109        -0.486263         1.142492
 C        -2.027732         0.279696        -0.153054
 C        -1.700423        -0.895502        -1.009315
 C        -0.590057        -1.233539         0.171485
 O        -0.006646        -2.476463         0.346479
 C         0.296832        -0.022257         0.096354
 O         1.421283         0.023087         0.561434
 C        -0.672548         1.181506        -0.271889
 H        -3.466193        -1.668451         0.794513
 H        -2.676814        -2.205427         2.215480
 H        -3.645710        -0.660876         2.105072
 H        -1.317843         0.045037         2.011314
 H        -3.036513         0.799855        -0.321062
 H        -2.569442        -1.610865        -1.070091
 H        -1.288949        -0.710038        -2.050677
 H         1.004254        -2.307806         0.362235
 H        -0.597321         1.940945         0.524358
 H        -0.558565         1.585462        -1.190041
