19
Iteration:  4065
 C        -3.017871        -1.394978         1.605710
 C        -1.739525        -0.621353         1.138514
 C        -2.023313         0.338327        -0.075669
 C        -1.561622        -0.893403        -0.988890
 C        -0.650081        -1.188846         0.190815
 O        -0.149343        -2.409749         0.418755
 C         0.300877         0.014523         0.223781
 O         1.500014         0.089480         0.385183
 C        -0.621835         1.151739        -0.283951
 H        -3.550671        -2.024051         0.836832
 H        -2.722599        -2.079438         2.475739
 H        -3.862772        -0.716711         1.813285
 H        -1.240231        -0.390447         2.085552
 H        -2.977360         0.910391        -0.261336
 H        -2.373191        -1.578480        -1.160389
 H        -1.000189        -0.696721        -2.011181
 H         0.705134        -2.421086        -0.060853
 H        -0.620195         2.076445         0.221427
 H        -0.341745         1.290599        -1.375694
