19
Iteration:  4283charge 0 multiplicity 1
 C        -2.698998        -1.449903         1.614639
 C        -1.742192        -0.519092         1.027396
 C        -1.994813         0.387962        -0.199179
 C        -1.739552        -0.791499        -1.021087
 C        -0.645228        -1.254299         0.090644
 O        -0.095352        -2.417931         0.455589
 C         0.235137        -0.079090         0.143050
 O         1.356616         0.002231         0.618266
 C        -0.644178         1.174782        -0.315522
 H        -2.956184        -2.221534         0.846026
 H        -2.376961        -1.833220         2.541066
 H        -3.570100        -0.966976         1.919291
 H        -1.429794         0.233093         1.829984
 H        -2.947882         0.927884        -0.347707
 H        -2.591819        -1.565790        -0.898810
 H        -1.520504        -0.602220        -2.123901
 H         0.636600        -2.369444         1.013176
 H        -0.366189         1.967678         0.443485
 H        -0.437349         1.566904        -1.338787
