19
Iteration:  2431
 C        -3.012474        -1.395699         1.500461
 C        -1.796789        -0.546550         1.112094
 C        -1.964758         0.418035        -0.054777
 C        -1.663067        -0.860816        -1.021723
 C        -0.662140        -1.218203         0.202259
 O        -0.001408        -2.453179         0.510410
 C         0.276992        -0.017348         0.128426
 O         1.489449        -0.037791         0.106856
 C        -0.639732         1.174011         0.040388
 H        -3.982362        -0.706702         1.552885
 H        -3.087538        -2.147586         0.813885
 H        -2.824158        -1.828307         2.466570
 H        -1.272109        -0.275307         1.977896
 H        -2.912052         0.992210        -0.232539
 H        -2.524574        -1.559242        -1.080389
 H        -1.446604        -0.573854        -2.028983
 H         0.876315        -2.215024         0.671504
 H        -0.782481         1.763046         1.007504
 H        -0.438074         1.874175        -0.775547
