19
Iteration:  3188charge 0 multiplicity 1
 C        -2.851056        -1.431753         1.725276
 C        -1.873009        -0.348101         1.194007
 C        -1.955427         0.349679        -0.327928
 C        -1.703280        -0.988406        -1.005719
 C        -0.662487        -1.194179         0.172365
 O        -0.035813        -2.385490         0.260282
 C         0.259612         0.012604         0.177820
 O         1.442370        -0.037699         0.573928
 C        -0.651285         1.081345        -0.245551
 H        -2.756929        -2.272891         1.151352
 H        -2.602508        -1.706046         2.825784
 H        -3.907329        -1.051116         1.875495
 H        -1.411391         0.359541         2.006829
 H        -2.708907         1.096831        -0.742699
 H        -2.536773        -1.710562        -0.912373
 H        -1.360042        -0.948517        -2.099307
 H         0.943200        -2.205456         0.095225
 H        -0.635028         1.944276         0.464906
 H        -0.422831         1.602270        -1.151932
