19
Iteration:  2384
 C        -2.879526        -1.534453         1.632232
 C        -1.798672        -0.488252         1.182667
 C        -2.003274         0.423192        -0.122499
 C        -1.602220        -0.768464        -0.967366
 C        -0.726740        -1.123930         0.206594
 O        -0.107065        -2.417808         0.294728
 C         0.266539        -0.028009         0.215466
 O         1.466032        -0.162040         0.294174
 C        -0.656669         1.251841        -0.153676
 H        -3.873791        -1.446908         1.087469
 H        -2.344277        -2.523559         1.493379
 H        -2.999636        -1.405915         2.753556
 H        -1.552460         0.123674         2.001105
 H        -3.023970         0.834882        -0.158630
 H        -2.301989        -1.582098        -1.189971
 H        -1.067962        -0.737564        -1.910596
 H         0.786504        -2.216856         0.457926
 H        -0.435585         2.100741         0.496569
 H        -0.263346         1.460835        -1.236000
