19
Iteration:  4495
 C        -2.992685        -1.446801         1.697116
 C        -1.844950        -0.559706         1.077632
 C        -2.040617         0.354554        -0.233838
 C        -1.586193        -0.828487        -0.997557
 C        -0.644551        -1.180600         0.248214
 O        -0.126001        -2.434357         0.477461
 C         0.343738         0.005853         0.126507
 O         1.543534        -0.018166         0.311433
 C        -0.646401         1.202322        -0.185976
 H        -3.329448        -2.265010         0.933702
 H        -2.562212        -1.918710         2.567730
 H        -3.834805        -0.851053         2.082412
 H        -1.376783        -0.099292         1.993232
 H        -3.053201         0.805832        -0.334216
 H        -2.359763        -1.562526        -1.157941
 H        -0.899133        -0.706999        -1.962025
 H         0.730315        -2.307656         0.112061
 H        -0.785733         1.888915         0.647673
 H        -0.403155         1.804618        -1.148458
