19
Iteration:  4140charge 0 multiplicity 1
 C        -3.018767        -1.587811         1.440946
 C        -1.909016        -0.550042         1.082357
 C        -1.967736         0.440732        -0.095573
 C        -1.438196        -0.780117        -0.985702
 C        -0.683760        -1.159164         0.301178
 O        -0.096553        -2.364469         0.707596
 C         0.288391        -0.012586         0.144127
 O         1.484562        -0.149200        -0.006412
 C        -0.675406         1.285734        -0.041987
 H        -3.166505        -2.253585         0.653483
 H        -2.468664        -2.142675         2.235281
 H        -3.985021        -1.360964         1.803077
 H        -1.844654        -0.035771         2.055116
 H        -2.981208         0.897204        -0.378824
 H        -2.239551        -1.474100        -1.179305
 H        -0.885697        -0.527174        -1.974694
 H         0.920875        -2.091744         0.701427
 H        -0.385133         1.936959         0.787088
 H        -0.455134         1.742748        -0.925681
