19
Iteration:  2560
 C        -2.946895        -1.414687         1.588091
 C        -1.815863        -0.578707         1.193931
 C        -1.986072         0.341972        -0.118751
 C        -1.553738        -0.820448        -1.052250
 C        -0.788987        -1.194261         0.256194
 O        -0.072450        -2.428364         0.431393
 C         0.279471         0.005411         0.156576
 O         1.478277        -0.036591         0.320515
 C        -0.624810         1.207367        -0.200072
 H        -2.435881        -2.322236         2.058433
 H        -3.616800        -1.110823         2.387665
 H        -3.537611        -1.894658         0.830337
 H        -1.370526        -0.045617         2.140057
 H        -2.866885         0.955371        -0.484237
 H        -2.341264        -1.584990        -1.207441
 H        -1.092931        -0.471555        -1.953249
 H         0.826468        -2.195460         0.434904
 H        -0.391505         2.147500         0.299831
 H        -0.560485         1.513764        -1.276805
