19
Iteration:   417charge 0 multiplicity 1
 C        -2.964850        -1.374398         1.542190
 C        -1.726577        -0.605976         1.093460
 C        -1.974989         0.372367        -0.072454
 C        -1.729829        -0.853837        -1.043594
 C        -0.676389        -1.214960         0.157841
 O        -0.144698        -2.441265         0.452223
 C         0.377542         0.014947         0.080553
 O         1.539293         0.081874         0.418676
 C        -0.629309         1.135850        -0.145678
 H        -3.569309        -1.877163         0.770318
 H        -2.715837        -2.285212         2.158849
 H        -3.670534        -0.857626         2.173779
 H        -1.159958        -0.329410         1.975840
 H        -3.017952         0.838637        -0.039778
 H        -2.628012        -1.514628        -0.920992
 H        -1.428533        -0.788573        -2.012443
 H         0.780266        -2.584587         0.120474
 H        -0.665466         1.793284         0.714479
 H        -0.474250         1.786673        -1.080760
