19
Iteration:  3000charge 0 multiplicity 1
 C        -2.980720        -1.524680         1.377371
 C        -1.875671        -0.498307         1.129913
 C        -1.952070         0.287541        -0.118094
 C        -1.434244        -0.963837        -0.891254
 C        -0.654792        -1.109232         0.490706
 O        -0.213150        -2.445994         0.633184
 C         0.314883         0.118582         0.239144
 O         1.475730         0.027750        -0.047838
 C        -0.621522         1.244300        -0.196900
 H        -3.985931        -1.105967         1.124362
 H        -2.932290        -2.361338         0.772658
 H        -2.983015        -1.837716         2.413392
 H        -1.744984         0.123239         2.014356
 H        -2.812090         0.816502        -0.452077
 H        -2.215925        -1.766967        -0.884238
 H        -0.882778        -0.862795        -1.823543
 H         0.727588        -2.566432         0.803111
 H        -0.693487         2.046036         0.576780
 H        -0.364260         1.673276        -1.140018
