19
Iteration:   812
 C        -3.032494        -1.396648         1.533909
 C        -1.819376        -0.585286         1.106496
 C        -1.959156         0.377586        -0.094758
 C        -1.590600        -0.885900        -1.035772
 C        -0.660532        -1.181202         0.232629
 O        -0.014892        -2.357981         0.486209
 C         0.268465         0.032921         0.171438
 O         1.486385        -0.111201         0.107026
 C        -0.684515         1.222127         0.012002
 H        -3.596337        -2.083223         0.901900
 H        -2.694195        -2.114156         2.331710
 H        -3.785637        -0.844886         2.134919
 H        -1.415748        -0.176923         2.068997
 H        -2.939611         0.863009        -0.302260
 H        -2.356769        -1.672757        -1.009720
 H        -0.987211        -0.668211        -2.017262
 H         0.865081        -2.549901         0.193254
 H        -0.728372         1.846411         0.876137
 H        -0.298640         2.018712        -0.647625
