19
Iteration:  2117
 C        -2.955371        -1.454768         1.496108
 C        -1.754563        -0.511879         1.212547
 C        -2.002109         0.466970         0.013825
 C        -1.700349        -0.842626        -0.844670
 C        -0.624986        -1.181757         0.161869
 O        -0.064816        -2.476077         0.294550
 C         0.292940        -0.024060         0.205298
 O         1.498866        -0.066300         0.259704
 C        -0.670872         1.239248        -0.207224
 H        -3.703375        -1.343517         0.702334
 H        -2.834911        -2.587570         1.474886
 H        -3.410361        -1.167061         2.407214
 H        -1.284345        -0.210817         2.096730
 H        -2.947095         0.995551        -0.084347
 H        -2.407123        -1.690253        -0.803938
 H        -1.212828        -0.830528        -1.835743
 H         0.855526        -2.239139         0.555859
 H        -0.469550         2.056827         0.583943
 H        -0.678556         1.515110        -1.280470
