19
Iteration:  3225
 C        -2.994454        -1.349193         1.595475
 C        -1.725939        -0.537413         1.157952
 C        -1.980845         0.321786        -0.144561
 C        -1.645593        -0.896690        -0.974378
 C        -0.664812        -1.143701         0.259555
 O         0.020201        -2.437186         0.366533
 C         0.273113         0.026720         0.106202
 O         1.481509        -0.030853         0.386510
 C        -0.724782         1.124104        -0.229586
 H        -3.410119        -2.233802         0.901280
 H        -2.854813        -1.823351         2.585863
 H        -3.809094        -0.642222         1.474483
 H        -1.273228        -0.047798         1.999300
 H        -2.842570         0.928332        -0.432283
 H        -2.514124        -1.541384        -0.967363
 H        -1.271267        -0.680125        -1.970169
 H         0.777009        -2.293918         1.008760
 H        -0.780007         1.889443         0.553085
 H        -0.616397         1.497380        -1.309225
