19
Iteration:  3439
 C        -2.768655        -1.412818         1.651281
 C        -1.743199        -0.445195         1.073436
 C        -2.004232         0.319215        -0.200308
 C        -1.624850        -0.923282        -1.063557
 C        -0.649907        -1.149808         0.144237
 O        -0.164593        -2.471888         0.396493
 C         0.275391        -0.033579         0.143274
 O         1.424680         0.034092         0.535797
 C        -0.680243         1.171408        -0.232300
 H        -2.992188        -2.399460         1.246043
 H        -2.689930        -1.578820         2.816685
 H        -3.722570        -0.796515         1.400209
 H        -1.368132         0.081802         1.933802
 H        -2.995364         0.848454        -0.320189
 H        -2.459438        -1.567198        -0.853201
 H        -1.387225        -0.755571        -2.138604
 H         0.762089        -2.588268         0.634532
 H        -0.733913         2.029426         0.496037
 H        -0.361516         1.533063        -1.183068
