19
Iteration:  4663
 C        -3.035704        -1.506646         1.458602
 C        -1.827178        -0.557024         1.130860
 C        -1.958100         0.403479        -0.123059
 C        -1.605589        -0.821981        -0.955003
 C        -0.668880        -1.172231         0.412240
 O        -0.060014        -2.409115         0.591496
 C         0.291791         0.001425         0.130312
 O         1.513978        -0.065329         0.154622
 C        -0.662109         1.210434        -0.236713
 H        -3.220272        -2.191183         0.658861
 H        -2.683409        -2.236271         2.263003
 H        -3.915949        -0.901600         1.845606
 H        -1.360193        -0.081309         2.079697
 H        -2.865640         1.026472        -0.188558
 H        -2.470392        -1.592316        -1.243004
 H        -1.029040        -0.582129        -1.977282
 H         0.923389        -2.144732         0.415833
 H        -0.722474         1.982452         0.665822
 H        -0.463442         1.733731        -1.121352
