19
Iteration:  3301charge 0 multiplicity 1
 C        -2.936393        -1.621684         1.434908
 C        -1.881615        -0.560714         1.129007
 C        -1.912103         0.390440        -0.164489
 C        -1.431586        -0.834861        -0.941006
 C        -0.649424        -1.089059         0.346442
 O        -0.225631        -2.310901         0.713684
 C         0.278007         0.017853         0.114654
 O         1.500721        -0.116086         0.003364
 C        -0.704744         1.231872        -0.092726
 H        -3.811363        -1.773327         0.632539
 H        -2.378987        -2.562193         1.565054
 H        -3.345974        -1.333803         2.416803
 H        -1.783955         0.167866         1.960460
 H        -2.807079         0.994939        -0.215070
 H        -2.324754        -1.485064        -1.003977
 H        -0.764308        -0.790341        -1.816546
 H         0.765940        -2.347288         0.561991
 H        -0.596378         1.894735         0.766665
 H        -0.637059         1.775612        -1.121656
