19
Iteration:  2618
 C        -2.905897        -1.351376         1.560235
 C        -1.643983        -0.456759         1.116384
 C        -1.980361         0.356163        -0.193894
 C        -1.704801        -1.031876        -0.976063
 C        -0.601707        -1.202721         0.171582
 O        -0.100074        -2.471651         0.322563
 C         0.273610        -0.062590         0.122673
 O         1.409593         0.064391         0.510147
 C        -0.682421         1.206602        -0.174393
 H        -2.791875        -2.500007         1.254917
 H        -2.837949        -1.286944         2.586894
 H        -3.852767        -0.927639         1.286601
 H        -1.330938         0.305790         1.920919
 H        -2.909576         0.938253        -0.316295
 H        -2.499483        -1.792282        -0.853721
 H        -1.520985        -0.820132        -2.017494
 H         0.797635        -2.346798         0.771410
 H        -0.724119         1.824742         0.788739
 H        -0.468587         1.743445        -1.125287
