19
Iteration:   977charge 0 multiplicity 1
 C        -2.973838        -1.341919         1.611759
 C        -1.746068        -0.545150         1.140732
 C        -1.991152         0.347572        -0.144051
 C        -1.659075        -0.883217        -0.980517
 C        -0.677734        -1.229267         0.227154
 O        -0.037104        -2.458586         0.282217
 C         0.266596        -0.029701         0.176998
 O         1.463994        -0.006419         0.331488
 C        -0.674890         1.205876        -0.070312
 H        -3.244311        -1.991938         0.764554
 H        -2.614509        -2.039290         2.377107
 H        -3.628460        -0.652169         2.088787
 H        -1.289951        -0.001597         2.001633
 H        -2.968292         0.811120        -0.356798
 H        -2.473967        -1.660664        -0.819110
 H        -1.293294        -0.853579        -2.016133
 H         0.818694        -2.098140         0.118598
 H        -0.476502         2.013920         0.604345
 H        -0.321569         1.731962        -0.984707
