19
Iteration:  2262
 C        -2.945403        -1.423680         1.547543
 C        -1.704641        -0.498550         1.154473
 C        -2.001785         0.427984        -0.055856
 C        -1.703659        -0.808157        -0.966707
 C        -0.696560        -1.177602         0.154352
 O         0.037843        -2.430575         0.352457
 C         0.236747        -0.002923         0.058457
 O         1.450378        -0.178876         0.230515
 C        -0.680488         1.199057         0.020112
 H        -3.304603        -2.204472         0.959478
 H        -2.764243        -1.780593         2.724648
 H        -3.837748        -0.766326         1.890803
 H        -1.326170        -0.120142         2.076143
 H        -2.919611         1.039632        -0.091456
 H        -2.443357        -1.622328        -1.000542
 H        -1.337581        -0.677682        -2.012823
 H         0.940493        -2.182697         0.379466
 H        -0.615040         1.821238         0.928721
 H        -0.385643         1.758720        -0.999772
