19
Iteration:   962charge 0 multiplicity 1
 C        -2.947989        -1.329345         1.736840
 C        -1.842362        -0.486571         1.175490
 C        -1.977905         0.359442        -0.164876
 C        -1.658121        -0.900257        -1.056355
 C        -0.623156        -1.219706         0.080424
 O         0.078080        -2.451750         0.268271
 C         0.238558         0.026642         0.204463
 O         1.423219        -0.096322         0.348009
 C        -0.667135         1.178793        -0.072504
 H        -3.627355        -1.738002         1.045919
 H        -2.649111        -2.028573         2.553887
 H        -3.855856        -0.807802         2.085895
 H        -1.422980         0.076071         2.014759
 H        -2.897324         0.983784        -0.334679
 H        -2.536809        -1.481994        -1.117549
 H        -1.246247        -0.661149        -2.046936
 H         1.069021        -2.405647         0.472660
 H        -0.843684         1.774747         0.832964
 H        -0.401403         1.617900        -1.075008
