19
Iteration:  3472charge 0 multiplicity 1
 C        -2.708666        -1.553029         1.618206
 C        -1.815178        -0.461306         1.114131
 C        -2.037825         0.456230        -0.221070
 C        -1.680692        -0.891979        -0.968855
 C        -0.700121        -1.161148         0.241396
 O        -0.158994        -2.433639         0.349896
 C         0.285985        -0.023617         0.098690
 O         1.405853        -0.013807         0.614530
 C        -0.550709         1.193652        -0.387535
 H        -2.642750        -2.468315         1.098882
 H        -2.653021        -1.558204         2.746091
 H        -3.756791        -1.141474         1.596721
 H        -1.434979         0.118082         1.927803
 H        -3.006455         0.987789        -0.222665
 H        -2.493034        -1.610614        -0.909681
 H        -1.423020        -0.915095        -2.008346
 H         0.721788        -2.290051         0.833254
 H        -0.532416         2.146540         0.148064
 H        -0.380368         1.299852        -1.436538
