19
Iteration:  2146
 C        -2.945682        -1.538918         1.601424
 C        -1.850169        -0.565028         1.204114
 C        -1.926814         0.399687        -0.042572
 C        -1.705156        -0.718554        -1.117900
 C        -0.706459        -1.177417         0.181150
 O        -0.050453        -2.320657         0.512558
 C         0.267161        -0.058991         0.125358
 O         1.520321        -0.124954         0.187047
 C        -0.620275         1.184302        -0.096155
 H        -3.943350        -1.399386         0.967547
 H        -2.711800        -2.534625         1.523831
 H        -3.239518        -1.422181         2.678554
 H        -1.186721        -0.241849         2.066875
 H        -2.818058         1.079881        -0.183653
 H        -2.424281        -1.549071        -1.167787
 H        -1.225502        -0.498469        -2.086739
 H         0.850643        -2.095780         0.076825
 H        -0.426906         1.806498         0.779438
 H        -0.676705         1.796215        -0.972916
