19
Iteration:   732
 C        -2.851355        -1.558934         1.590925
 C        -1.835909        -0.432173         1.113464
 C        -2.007501         0.425955        -0.136931
 C        -1.556971        -0.846428        -1.014576
 C        -0.713117        -1.170262         0.243214
 O        -0.211390        -2.446176         0.437812
 C         0.310423         0.018017         0.189729
 O         1.517370        -0.044836         0.203559
 C        -0.647601         1.176342        -0.051700
 H        -3.338048        -2.235456         0.846045
 H        -2.369026        -2.279048         2.369023
 H        -3.716865        -0.993748         1.965080
 H        -1.322324         0.029049         2.034458
 H        -2.894239         0.973523        -0.425852
 H        -2.341080        -1.625560        -1.096298
 H        -1.306622        -0.735346        -2.098992
 H         0.795520        -2.173338         0.274016
 H        -0.609634         1.903747         0.811108
 H        -0.307227         1.756174        -1.010114
