19
Iteration:  2504
 C        -2.947131        -1.538687         1.484254
 C        -1.832742        -0.542545         1.177333
 C        -1.999051         0.451394        -0.114771
 C        -1.587589        -0.798649        -1.022013
 C        -0.678159        -1.180731         0.227455
 O        -0.111812        -2.370239         0.604814
 C         0.265677         0.027138         0.139915
 O         1.478755        -0.110592         0.083668
 C        -0.601063         1.170251        -0.047530
 H        -2.979636        -1.661577         2.536824
 H        -3.949556        -1.288474         1.029737
 H        -2.618691        -2.545751         1.116784
 H        -1.475883         0.037017         2.141068
 H        -2.794140         1.190464        -0.335331
 H        -2.370349        -1.587485        -1.016273
 H        -1.045237        -0.769097        -1.993615
 H         0.805875        -2.229327         0.590598
 H        -0.583958         1.762614         0.856273
 H        -0.435890         1.840096        -0.939103
