19
Iteration:  3155
 C        -2.772706        -1.377645         1.712956
 C        -1.698181        -0.530390         1.154364
 C        -1.933954         0.352178        -0.142098
 C        -1.619909        -0.931494        -1.156146
 C        -0.617765        -1.222426         0.021035
 O        -0.163031        -2.464419         0.419177
 C         0.233829         0.049658         0.113744
 O         1.327230        -0.001797         0.573690
 C        -0.704442         1.192593        -0.274982
 H        -3.040497        -2.133560         1.058754
 H        -2.275069        -1.849285         2.619380
 H        -3.709564        -0.765158         1.943730
 H        -1.152259         0.071554         1.968343
 H        -2.866805         0.952279        -0.304892
 H        -2.366282        -1.745003        -1.277129
 H        -1.171970        -0.652057        -2.153978
 H         0.426647        -2.203027         1.170886
 H        -0.621019         2.080316         0.394928
 H        -0.633159         1.424133        -1.310343
