19
Iteration:  4894
 C        -2.962733        -1.363789         1.508071
 C        -1.762913        -0.495255         1.152862
 C        -1.941825         0.313338        -0.105476
 C        -1.646051        -0.965758        -0.969898
 C        -0.621613        -1.184708         0.227095
 O        -0.090363        -2.448085         0.409712
 C         0.259782         0.020769         0.127870
 O         1.465473         0.030744         0.302862
 C        -0.671236         1.182898        -0.126280
 H        -3.366088        -2.175946         0.743128
 H        -2.667581        -1.929991         2.369873
 H        -3.792791        -0.699979         1.761765
 H        -1.346521         0.064142         2.101185
 H        -2.870342         0.773583        -0.199707
 H        -2.459574        -1.850756        -0.836121
 H        -1.223095        -0.825237        -2.014118
 H         0.869857        -2.269909         0.657192
 H        -0.732248         2.049662         0.539081
 H        -0.387509         1.566447        -1.155498
