19
Iteration:  1529charge 0 multiplicity 1
 C        -2.704492        -1.466241         1.639816
 C        -1.842646        -0.482857         1.082058
 C        -1.974686         0.402731        -0.194941
 C        -1.603604        -0.829623        -1.073405
 C        -0.711533        -1.188275         0.086723
 O        -0.285079        -2.517293         0.400854
 C         0.321607        -0.035979         0.183477
 O         1.519498         0.082781         0.398971
 C        -0.675401         1.132791        -0.063474
 H        -3.043688        -2.319070         0.928135
 H        -2.315952        -1.976890         2.593937
 H        -3.665660        -0.960777         2.030434
 H        -1.376423         0.173702         1.897393
 H        -2.909421         0.958141        -0.317741
 H        -2.489849        -1.506504        -1.019591
 H        -1.367066        -0.814990        -2.178855
 H         0.623343        -2.485851         0.670915
 H        -0.632561         1.847163         0.769524
 H        -0.422338         1.761123        -0.957385
