19
Iteration:   111
 C        -3.046364        -1.405972         1.802585
 C        -1.853861        -0.592426         1.171734
 C        -1.962805         0.372700        -0.178600
 C        -1.616460        -0.837202        -1.021274
 C        -0.701946        -1.207902         0.179299
 O        -0.008509        -2.342922         0.155764
 C         0.324412         0.083956         0.227689
 O         1.495088        -0.190014         0.373798
 C        -0.637147         1.199823        -0.127077
 H        -2.856505        -2.466757         1.546740
 H        -2.915405        -1.359912         2.901495
 H        -3.991255        -1.045635         1.487838
 H        -1.399481        -0.101042         2.051603
 H        -2.838784         0.893035        -0.419049
 H        -2.473296        -1.491691        -0.881785
 H        -1.333093        -0.674977        -2.098555
 H         0.998571        -2.190024         0.146962
 H        -0.658133         2.087812         0.431258
 H        -0.519333         1.629163        -1.155960
