19
Iteration:  3435
 C        -2.810949        -1.401237         1.670971
 C        -1.720185        -0.476896         1.018030
 C        -2.027084         0.332248        -0.190125
 C        -1.634577        -0.943343        -1.042124
 C        -0.646418        -1.147863         0.150245
 O        -0.161526        -2.481801         0.396246
 C         0.280261         0.000090         0.138517
 O         1.445212         0.027416         0.526796
 C        -0.696768         1.186432        -0.211912
 H        -3.103280        -2.445166         1.291930
 H        -2.661550        -1.572276         2.675256
 H        -3.641902        -0.775940         1.437473
 H        -1.276097         0.027688         1.883537
 H        -2.982501         0.816973        -0.408142
 H        -2.466090        -1.631706        -0.931263
 H        -1.291231        -0.751546        -2.041535
 H         0.776915        -2.540030         0.730292
 H        -0.617565         2.035825         0.517787
 H        -0.344203         1.626495        -1.185244
