19
Iteration:  4394
 C        -3.067132        -1.422373         1.417744
 C        -1.823340        -0.544317         1.199948
 C        -2.009615         0.343852        -0.144463
 C        -1.546086        -0.845295        -0.977446
 C        -0.593221        -1.179130         0.266840
 O         0.051021        -2.416075         0.655776
 C         0.246226         0.013773         0.170552
 O         1.460311        -0.122781         0.069133
 C        -0.713779         1.250705        -0.052448
 H        -3.634790        -1.534230         0.414956
 H        -2.736596        -2.280427         1.934757
 H        -3.908551        -1.023396         1.916689
 H        -1.668553         0.101224         2.058861
 H        -2.954126         0.781816        -0.317336
 H        -2.375155        -1.621099        -1.100383
 H        -1.149347        -0.593321        -2.017415
 H         0.895831        -2.131797         0.316208
 H        -0.561867         1.917502         0.775162
 H        -0.134214         1.707169        -1.002775
