19
Iteration:   224
 C        -2.824623        -1.595852         1.579633
 C        -1.805288        -0.507941         1.065959
 C        -1.914115         0.436781        -0.162213
 C        -1.458824        -0.813861        -1.066467
 C        -0.696328        -1.101440         0.231479
 O        -0.226154        -2.387322         0.526525
 C         0.264989         0.014263         0.146266
 O         1.431677        -0.198150         0.077779
 C        -0.708358         1.280309         0.093587
 H        -3.586483        -2.058135         0.925365
 H        -2.273016        -2.524319         1.854691
 H        -3.339299        -1.188758         2.531788
 H        -1.625981         0.082485         1.985750
 H        -2.859077         1.040715        -0.354193
 H        -2.480305        -1.393111        -1.048635
 H        -0.868161        -0.868223        -2.076518
 H         0.616231        -2.109027         0.813584
 H        -0.764790         2.016142         0.960713
 H        -0.534487         1.933065        -0.788966
