19
Iteration:  2323charge 0 multiplicity 1
 C        -2.839863        -1.419615         1.645926
 C        -1.655044        -0.536585         1.183265
 C        -1.903771         0.421392        -0.043402
 C        -1.682859        -0.758611        -1.047769
 C        -0.677462        -1.204537         0.106786
 O        -0.234928        -2.562722         0.279326
 C         0.270417         0.020969         0.144105
 O         1.467118        -0.012487         0.412794
 C        -0.700032         1.186811        -0.169857
 H        -3.156737        -2.316713         0.972401
 H        -2.404482        -1.942008         2.469174
 H        -3.713332        -0.862483         1.928304
 H        -1.200385        -0.012924         2.109794
 H        -2.943380         0.696061         0.033652
 H        -2.479339        -1.532164        -1.105763
 H        -1.149036        -0.453653        -1.950552
 H         0.797208        -2.417425         0.353505
 H        -0.717640         2.037954         0.536719
 H        -0.622610         1.600307        -1.113123
