19
Iteration:  3397charge 0 multiplicity 1
 C        -3.052372        -1.359009         1.598242
 C        -1.806709        -0.535051         1.090395
 C        -2.037718         0.343925        -0.183286
 C        -1.562415        -0.896349        -0.984814
 C        -0.582866        -1.213265         0.279260
 O        -0.004062        -2.432940         0.397513
 C         0.239874        -0.023668         0.173761
 O         1.454844         0.042658         0.279918
 C        -0.658989         1.119392        -0.125093
 H        -3.614216        -1.787735         0.846166
 H        -2.837401        -2.096904         2.491649
 H        -3.648200        -0.586259         2.143265
 H        -1.500772         0.210830         1.922566
 H        -3.007823         0.812994        -0.478694
 H        -2.286158        -1.729254        -1.256132
 H        -0.955345        -0.693097        -1.935954
 H         0.833471        -2.316712         0.876648
 H        -0.373267         1.846026         0.625592
 H        -0.421729         1.464855        -1.118312
