19
Iteration:  2057charge 0 multiplicity 1
 C        -2.872506        -1.471837         1.815046
 C        -1.785501        -0.561590         1.033220
 C        -1.969437         0.349876        -0.138701
 C        -1.621868        -0.746533        -1.081639
 C        -0.673886        -1.218615         0.094754
 O        -0.213781        -2.579652         0.310841
 C         0.292747         0.046188         0.193608
 O         1.485390         0.046916         0.340345
 C        -0.617898         1.208927        -0.061317
 H        -3.540579        -2.059850         1.156037
 H        -2.330898        -2.093653         2.537956
 H        -3.531548        -0.794039         2.458302
 H        -1.366027         0.114183         1.890102
 H        -2.929205         0.879332        -0.315952
 H        -2.409042        -1.445379        -1.380852
 H        -0.967491        -0.539378        -1.972841
 H         0.797094        -2.559132         0.574880
 H        -0.600491         2.074531         0.531391
 H        -0.625451         1.778380        -1.023133
