19
Iteration:  3286
 C        -2.940067        -1.543531         1.452860
 C        -1.894259        -0.461895         1.136209
 C        -2.007626         0.340998        -0.151950
 C        -1.490072        -0.946498        -0.963670
 C        -0.678417        -1.081132         0.350031
 O        -0.180024        -2.371312         0.650581
 C         0.317734         0.085014         0.164498
 O         1.528136        -0.077919         0.034408
 C        -0.648560         1.214568        -0.041046
 H        -3.517729        -1.668734         0.643187
 H        -2.500003        -2.547586         1.739990
 H        -3.532186        -1.295982         2.364543
 H        -1.475311        -0.001375         2.104836
 H        -2.912113         0.771067        -0.670247
 H        -2.150086        -1.790695        -1.165912
 H        -0.987571        -0.767119        -1.998260
 H         0.576492        -2.464912         0.097330
 H        -0.731011         2.072060         0.653510
 H        -0.381250         1.709551        -0.945459
