19
Iteration:  4461charge 0 multiplicity 1
 C        -2.848578        -1.455207         1.462207
 C        -1.783731        -0.503829         1.067148
 C        -2.050188         0.384850        -0.144598
 C        -1.536735        -0.865483        -0.986590
 C        -0.704442        -1.219575         0.252045
 O        -0.200662        -2.437758         0.658219
 C         0.284634         0.002851         0.152604
 O         1.500304        -0.009818         0.091451
 C        -0.652307         1.218989        -0.014351
 H        -3.356102        -2.103833         0.584433
 H        -2.295374        -2.122744         2.098073
 H        -3.763007        -1.068204         1.914685
 H        -1.493325         0.072774         1.970945
 H        -3.032050         0.818574        -0.286449
 H        -2.321180        -1.577751        -1.173512
 H        -0.950858        -0.745584        -2.012698
 H         0.789302        -2.569837         0.807242
 H        -0.778439         1.962409         0.742459
 H        -0.235218         1.859556        -0.960083
