19
Iteration:  1916charge 0 multiplicity 1
 C        -3.035586        -1.434213         1.670413
 C        -1.885038        -0.628813         1.114653
 C        -1.907707         0.390142        -0.161161
 C        -1.518137        -0.824008        -1.123934
 C        -0.712566        -1.235323         0.222998
 O        -0.042155        -2.386954         0.546215
 C         0.264159         0.005177         0.094503
 O         1.481380        -0.039255         0.075542
 C        -0.625138         1.183248         0.090798
 H        -3.679274        -1.805592         0.887863
 H        -2.622624        -2.152925         2.380969
 H        -3.706360        -0.686382         2.201622
 H        -1.620297        -0.192808         2.084606
 H        -2.835641         0.964148        -0.453047
 H        -2.390026        -1.390936        -1.476873
 H        -0.905862        -0.617218        -2.050116
 H         0.841504        -2.328862         0.251083
 H        -0.734723         1.651517         1.111258
 H        -0.465397         2.012972        -0.649456
