19
Iteration:  2517charge 0 multiplicity 1
 C        -2.879373        -1.555639         1.463577
 C        -1.820827        -0.462622         1.083056
 C        -1.907416         0.379413        -0.126219
 C        -1.713340        -0.894721        -1.013126
 C        -0.708139        -1.121510         0.238953
 O        -0.104786        -2.325076         0.600786
 C         0.303127        -0.035700         0.043251
 O         1.500660        -0.150146         0.172054
 C        -0.647385         1.248081         0.016324
 H        -2.878217        -1.836283         2.577313
 H        -3.838938        -1.174258         1.315413
 H        -2.788744        -2.449591         0.881567
 H        -1.529438         0.145888         1.996725
 H        -2.930738         0.861168        -0.174624
 H        -2.677060        -1.367774        -1.221700
 H        -1.268657        -0.780382        -1.959913
 H         0.926632        -2.143857         0.698961
 H        -0.659865         1.814110         0.982177
 H        -0.341575         1.958272        -0.793734
