19
Iteration:  3922charge 0 multiplicity 1
 C        -3.033329        -1.417231         1.444117
 C        -1.902435        -0.542217         1.140493
 C        -2.022621         0.378573        -0.092382
 C        -1.582413        -0.933465        -0.960900
 C        -0.597089        -1.186948         0.233159
 O        -0.073353        -2.412025         0.602127
 C         0.329240        -0.015501         0.138145
 O         1.537321         0.004943         0.126733
 C        -0.652827         1.186625        -0.082776
 H        -3.219904        -2.215317         0.780625
 H        -2.784527        -2.076099         2.351440
 H        -4.000927        -0.925528         1.523085
 H        -1.505062         0.064534         1.933882
 H        -2.890795         1.029465        -0.461704
 H        -2.299573        -1.733744        -1.198603
 H        -1.000971        -0.597124        -1.853921
 H         0.925312        -2.276143         0.750697
 H        -0.768137         1.854074         0.807305
 H        -0.472836         1.863826        -0.991437
