19
Iteration:    24
 C        -2.869154        -1.610423         1.478541
 C        -1.829044        -0.404056         1.266699
 C        -2.002412         0.479518        -0.007407
 C        -1.689829        -0.767668        -0.843862
 C        -0.641440        -1.163531         0.293583
 O        -0.226225        -2.530006         0.268369
 C         0.334807        -0.031191         0.156967
 O         1.550918        -0.001758         0.277321
 C        -0.620847         1.189797        -0.241051
 H        -2.363110        -2.541570         1.802269
 H        -3.595759        -1.475057         2.283344
 H        -3.407705        -1.829779         0.607158
 H        -1.515505         0.133595         2.149912
 H        -2.862227         1.046327        -0.134503
 H        -2.464102        -1.419294        -1.018130
 H        -1.161640        -0.437130        -1.724168
 H         0.793455        -2.536317         0.236723
 H        -0.352339         2.034176         0.306785
 H        -0.588325         1.339463        -1.340068
