19
Iteration:  4773charge 0 multiplicity 1
 C        -2.904709        -1.457323         1.528045
 C        -1.786981        -0.475937         1.156934
 C        -2.016351         0.421543        -0.107646
 C        -1.571919        -0.848330        -1.059118
 C        -0.620936        -1.262836         0.184624
 O        -0.135912        -2.460529         0.563832
 C         0.262185         0.028026         0.164200
 O         1.476082        -0.015021         0.317344
 C        -0.701314         1.193986        -0.273166
 H        -3.329572        -2.132948         0.762126
 H        -2.350990        -2.225123         2.109051
 H        -3.612418        -1.045089         2.278881
 H        -1.460429        -0.069776         2.061112
 H        -2.878644         1.042249        -0.285686
 H        -2.391254        -1.581359        -0.803679
 H        -1.135953        -0.668336        -1.984240
 H         0.822174        -2.450265         0.489019
 H        -0.683366         2.030365         0.542249
 H        -0.479046         1.634357        -1.252395
