19
Iteration:  1222charge 0 multiplicity 1
 C        -2.712076        -1.519622         1.569484
 C        -1.775809        -0.433881         1.104366
 C        -1.949321         0.402478        -0.167662
 C        -1.687548        -0.835843        -0.943988
 C        -0.700969        -1.136117         0.179724
 O        -0.152013        -2.443157         0.323675
 C         0.225442        -0.013449         0.123589
 O         1.377543        -0.104342         0.475703
 C        -0.639015         1.213475        -0.170225
 H        -3.308316        -2.197347         0.772654
 H        -2.013039        -2.034748         2.215943
 H        -3.558302        -1.025438         2.157554
 H        -1.370634         0.174297         1.921116
 H        -2.895252         0.977811        -0.247135
 H        -2.556173        -1.533465        -0.958347
 H        -1.210015        -0.931807        -1.995983
 H         0.858392        -2.310559         0.507863
 H        -0.451293         1.882202         0.699701
 H        -0.375453         1.746814        -1.066995
