19
Iteration:  3213
 C        -2.924677        -1.327727         1.583033
 C        -1.844037        -0.457667         1.180527
 C        -2.018325         0.362635        -0.189687
 C        -1.638386        -0.942128        -0.911988
 C        -0.613313        -1.255117         0.197027
 O         0.025984        -2.424778         0.291819
 C         0.259413        -0.009135         0.166271
 O         1.429407        -0.046875         0.425100
 C        -0.687641         1.176558        -0.212342
 H        -2.952910        -2.313744         0.960958
 H        -2.725639        -1.587904         2.689273
 H        -3.885049        -0.826429         1.779940
 H        -1.580058         0.203334         2.016139
 H        -2.998675         0.855069        -0.433685
 H        -2.371914        -1.726925        -0.922805
 H        -1.241041        -0.875963        -1.955957
 H         0.831439        -2.293239         0.761194
 H        -0.445458         2.111293         0.304680
 H        -0.446528         1.542918        -1.285212
