19
Iteration:  3617
 C        -3.026033        -1.625356         1.389910
 C        -1.944021        -0.555231         1.180113
 C        -2.047375         0.396087        -0.131308
 C        -1.515378        -0.858934        -0.967063
 C        -0.621854        -1.097074         0.333132
 O        -0.119969        -2.287352         0.768429
 C         0.355492         0.067246         0.100248
 O         1.561334        -0.143843         0.032823
 C        -0.622404         1.240631        -0.121037
 H        -3.368429        -1.918592         0.467291
 H        -2.664074        -2.649502         1.637614
 H        -3.767227        -1.202234         2.055734
 H        -1.536726        -0.080633         2.032501
 H        -3.001953         0.989450        -0.178214
 H        -2.462794        -1.478039        -1.004532
 H        -1.205891        -0.686741        -1.969772
 H         0.691339        -2.417590         0.217015
 H        -0.452983         1.884240         0.710137
 H        -0.365345         1.768101        -1.048193
