19
Iteration:  4108
 C        -2.880298        -1.498228         1.428196
 C        -1.849582        -0.513111         1.125594
 C        -2.011479         0.380392        -0.176905
 C        -1.558932        -0.885832        -0.955764
 C        -0.685918        -1.156361         0.222135
 O        -0.197017        -2.350827         0.597938
 C         0.294523        -0.028722         0.144017
 O         1.536148        -0.031342         0.111317
 C        -0.653501         1.193869         0.019633
 H        -2.973269        -2.272551         0.659230
 H        -2.463719        -2.058685         2.295203
 H        -3.845782        -1.040336         1.489153
 H        -1.569681         0.131681         1.979876
 H        -3.068494         0.737030        -0.382969
 H        -2.310442        -1.652906        -1.068346
 H        -1.060612        -0.679500        -2.009900
 H         0.666453        -2.319851         0.962354
 H        -0.463565         1.659740         0.944513
 H        -0.332379         1.823665        -0.762244
