19
Iteration:  4972
 C        -2.898364        -1.471321         1.474220
 C        -1.866808        -0.467128         1.141265
 C        -1.997468         0.348196        -0.118642
 C        -1.560317        -0.915315        -1.002191
 C        -0.674159        -1.172034         0.281173
 O        -0.090191        -2.352610         0.665510
 C         0.277176         0.058659         0.062352
 O         1.479435        -0.117573         0.096227
 C        -0.661401         1.203520        -0.044821
 H        -3.394838        -1.894821         0.516346
 H        -2.480854        -2.301634         2.013829
 H        -3.777294        -1.258445         1.978906
 H        -1.663064         0.057761         2.105573
 H        -2.875731         0.802690        -0.482209
 H        -2.356622        -1.523390        -1.378896
 H        -1.030735        -0.687552        -1.926186
 H         0.895685        -2.330017         0.601698
 H        -0.534507         1.775098         0.839007
 H        -0.568202         1.982591        -0.832781
