19
Iteration:  3805charge 0 multiplicity 1
 C        -2.832890        -1.489723         1.638759
 C        -1.792421        -0.516210         1.144631
 C        -2.053572         0.357897        -0.200915
 C        -1.496231        -0.849753        -1.096541
 C        -0.685818        -1.125282         0.291055
 O        -0.274294        -2.399416         0.544824
 C         0.331407        -0.001387         0.157823
 O         1.530082         0.020093         0.333279
 C        -0.722670         1.150989        -0.276556
 H        -3.448473        -1.974634         0.765579
 H        -2.490464        -2.552842         1.978950
 H        -3.620009        -1.129112         2.348282
 H        -1.414147         0.222053         2.004002
 H        -2.977072         0.910269        -0.322157
 H        -2.075522        -1.711963        -1.217568
 H        -0.730692        -0.718528        -1.930298
 H         0.581682        -2.704305         0.323374
 H        -0.720974         1.879999         0.501786
 H        -0.311027         1.650763        -1.253943
