19
Iteration:   947charge 0 multiplicity 1
 C        -3.008506        -1.326267         1.775032
 C        -1.844035        -0.516713         1.129802
 C        -2.036916         0.352417        -0.142957
 C        -1.587070        -0.843291        -1.030937
 C        -0.680238        -1.242375         0.092127
 O         0.058725        -2.352398         0.241146
 C         0.267159        -0.061334         0.099127
 O         1.473849        -0.129137         0.415544
 C        -0.712056         1.164637        -0.086226
 H        -3.539244        -2.084714         1.084660
 H        -2.462855        -1.968892         2.433136
 H        -3.495343        -0.531034         2.402998
 H        -1.313023         0.108058         1.890564
 H        -2.970824         0.823515        -0.306107
 H        -2.295640        -1.697399        -1.266674
 H        -1.172781        -0.677414        -2.079147
 H         0.913954        -2.070064         0.658385
 H        -0.556250         1.890936         0.776765
 H        -0.543899         1.694723        -0.999597
