19
Iteration:  1335
 C        -2.981329        -1.588963         1.570996
 C        -1.889771        -0.580802         1.217236
 C        -1.942929         0.441714        -0.134904
 C        -1.577175        -0.693677        -1.082454
 C        -0.653630        -1.198195         0.256293
 O         0.006992        -2.364719         0.564680
 C         0.239767         0.009480         0.138152
 O         1.459696        -0.224034         0.128619
 C        -0.668512         1.275523        -0.109501
 H        -3.462451        -1.982713         0.709276
 H        -2.708660        -2.387859         2.346588
 H        -4.008886        -1.041739         1.935343
 H        -1.561081        -0.244873         2.225150
 H        -2.796386         1.049725        -0.440347
 H        -2.489687        -1.395960        -1.221216
 H        -0.954093        -0.203309        -1.854568
 H         0.931747        -2.089283         0.575862
 H        -0.315153         2.012212         0.589148
 H        -0.551688         1.828905        -1.087908
