19
Iteration:  1668
 C        -2.883994        -1.476274         1.694508
 C        -1.897294        -0.501960         1.078463
 C        -1.998517         0.410664        -0.208558
 C        -1.364472        -0.828723        -1.023714
 C        -0.694358        -1.173988         0.321036
 O        -0.184835        -2.463056         0.412500
 C         0.214661        -0.009534         0.219139
 O         1.410946        -0.074576         0.050081
 C        -0.613760         1.229624         0.057726
 H        -3.308764        -2.012926         0.663889
 H        -2.270314        -2.215979         2.119448
 H        -3.711701        -1.010273         2.309500
 H        -1.629062         0.049575         1.914114
 H        -2.997603         0.929328        -0.296967
 H        -1.944038        -1.700691        -1.287983
 H        -0.647601        -0.608848        -1.791588
 H         0.719077        -2.317629         0.535883
 H        -0.563394         2.086562         0.811210
 H        -0.554512         1.716521        -0.907567
