19
Iteration:  2978charge 0 multiplicity 1
 C        -2.955672        -1.487074         1.488453
 C        -1.740088        -0.487594         1.126479
 C        -2.013919         0.357135        -0.166317
 C        -1.437524        -0.868548        -1.033308
 C        -0.654328        -1.222142         0.302573
 O        -0.187146        -2.418987         0.703079
 C         0.284101        -0.027005         0.153138
 O         1.513070         0.036476         0.101863
 C        -0.758449         1.193738        -0.177071
 H        -3.972987        -1.001291         1.564160
 H        -3.078099        -2.206144         0.746014
 H        -2.859427        -2.040846         2.416564
 H        -1.469292         0.141603         1.956961
 H        -2.945778         0.768704        -0.490788
 H        -2.185043        -1.645856        -1.331228
 H        -0.816381        -0.559565        -1.878343
 H         0.527922        -2.323262         1.413041
 H        -0.629068         1.905269         0.662057
 H        -0.609605         1.694252        -1.124425
