19
Iteration:  4653
 C        -2.995977        -1.548626         1.495322
 C        -1.808382        -0.492445         1.200718
 C        -1.982737         0.422515        -0.166519
 C        -1.600717        -0.836587        -0.954116
 C        -0.652520        -1.146313         0.265441
 O        -0.074573        -2.435781         0.608667
 C         0.273821        -0.016506         0.059215
 O         1.474244        -0.020287         0.194897
 C        -0.616364         1.168141        -0.164732
 H        -3.197555        -2.035441         0.522946
 H        -2.777460        -2.365487         2.221147
 H        -3.943909        -1.024482         1.846015
 H        -1.644109         0.265170         2.060441
 H        -2.880513         1.003322        -0.359040
 H        -2.488918        -1.580508        -0.973823
 H        -1.054874        -0.628008        -2.005496
 H         0.910872        -2.423139         0.564707
 H        -0.454158         1.927786         0.673819
 H        -0.402726         1.668914        -1.087917
