19
Iteration:   587
 C        -2.932169        -1.390306         1.718103
 C        -1.803147        -0.551951         1.083581
 C        -1.980810         0.402507        -0.147563
 C        -1.558017        -0.831046        -1.144774
 C        -0.633652        -1.193590         0.254492
 O        -0.027975        -2.483450         0.397190
 C         0.198936        -0.015566         0.132119
 O         1.404757        -0.080586         0.215772
 C        -0.660944         1.231412         0.007990
 H        -3.426946        -1.840227         0.790062
 H        -2.543987        -2.122008         2.444547
 H        -3.729852        -0.777855         2.224109
 H        -1.303802         0.093741         1.868777
 H        -2.936556         0.958774        -0.246171
 H        -2.463977        -1.531040        -1.229729
 H        -1.204348        -0.668389        -2.190951
 H         0.870146        -2.343018         0.680995
 H        -0.579194         1.740567         1.038529
 H        -0.407309         1.804516        -0.901165
