19
Iteration:  3561charge 0 multiplicity 1
 C        -3.132802        -1.400312         1.506490
 C        -1.912374        -0.567341         1.132016
 C        -1.947746         0.281816        -0.172260
 C        -1.428885        -0.888543        -0.957745
 C        -0.635301        -1.160873         0.299951
 O        -0.043264        -2.381322         0.567386
 C         0.314025         0.018338         0.124547
 O         1.522055        -0.012327         0.096139
 C        -0.708887         1.165633        -0.104596
 H        -3.850618        -1.549112         0.818425
 H        -2.827638        -2.312606         2.045662
 H        -3.621701        -0.859510         2.326091
 H        -1.709235        -0.128197         2.041843
 H        -2.755177         0.980731        -0.251355
 H        -2.195985        -1.667665        -1.069633
 H        -1.037658        -0.652148        -1.884510
 H         0.892689        -2.297071         0.779550
 H        -0.869384         1.800456         0.732532
 H        -0.391251         1.711470        -0.961990
