19
Iteration:  2829
 C        -2.891331        -1.472113         1.657683
 C        -1.809631        -0.507422         1.112590
 C        -2.017482         0.308195        -0.285675
 C        -1.492143        -0.861081        -1.092565
 C        -0.752278        -1.136341         0.298643
 O        -0.170931        -2.421199         0.568058
 C         0.299721         0.036367         0.241215
 O         1.510731         0.014556         0.381477
 C        -0.713820         1.164752        -0.345274
 H        -3.561176        -1.032962         2.307264
 H        -3.513504        -1.958908         0.786648
 H        -2.419131        -2.393327         2.100425
 H        -1.261061        -0.079960         2.045247
 H        -2.903537         0.827653        -0.621603
 H        -2.251836        -1.648341        -1.277172
 H        -0.771019        -0.656355        -1.876669
 H         0.746668        -2.360012         0.445185
 H        -0.599967         1.997058         0.386367
 H        -0.518909         1.541118        -1.377877
