19
Iteration:  3804charge 0 multiplicity 1
 C        -2.827278        -1.487006         1.645691
 C        -1.802276        -0.517258         1.138242
 C        -2.048516         0.364994        -0.197277
 C        -1.493309        -0.859385        -1.109345
 C        -0.690056        -1.123085         0.294854
 O        -0.271111        -2.397367         0.538635
 C         0.327084        -0.008236         0.155689
 O         1.531016         0.020827         0.341242
 C        -0.727845         1.155756        -0.277002
 H        -3.415371        -1.954541         0.780903
 H        -2.498835        -2.566983         1.992560
 H        -3.613451        -1.151586         2.367787
 H        -1.389986         0.223101         1.987722
 H        -2.989799         0.911107        -0.355911
 H        -2.091818        -1.715120        -1.186006
 H        -0.763384        -0.721197        -1.920609
 H         0.591221        -2.731344         0.322802
 H        -0.689339         1.897489         0.518143
 H        -0.292103         1.645576        -1.249306
