19
Iteration:  2650
 C        -2.931110        -1.534281         1.658883
 C        -1.754097        -0.526212         1.139284
 C        -1.995174         0.425767        -0.143766
 C        -1.656095        -0.843403        -1.100109
 C        -0.680558        -1.157751         0.222999
 O        -0.077751        -2.347719         0.453078
 C         0.244216        -0.055595         0.158945
 O         1.444035        -0.059567         0.474433
 C        -0.618537         1.175800        -0.342538
 H        -2.975328        -2.563547         0.991025
 H        -2.552386        -1.868426         2.566812
 H        -3.837495        -0.977078         1.782964
 H        -1.314080         0.094129         2.111282
 H        -2.959368         0.980054        -0.298586
 H        -2.316352        -1.739329        -1.235017
 H        -1.142504        -0.525567        -2.004383
 H         0.916906        -2.183070         0.573079
 H        -0.600004         2.231024         0.139679
 H        -0.521761         1.370327        -1.443831
