19
Iteration:  4132charge 0 multiplicity 1
 C        -2.980245        -1.608195         1.467527
 C        -1.939124        -0.529643         1.111596
 C        -1.926966         0.452109        -0.143699
 C        -1.527681        -0.805630        -1.058483
 C        -0.625957        -1.128306         0.312849
 O        -0.102603        -2.338657         0.689043
 C         0.292686         0.039089         0.171096
 O         1.484710        -0.172402         0.004152
 C        -0.682880         1.254522        -0.015528
 H        -3.136738        -2.375763         0.586251
 H        -2.469196        -2.178777         2.246684
 H        -4.017979        -1.215877         1.657958
 H        -1.495251        -0.084596         1.993907
 H        -2.836107         0.991298        -0.279039
 H        -2.334210        -1.537705        -1.271857
 H        -0.881164        -0.642111        -1.988837
 H         0.810580        -2.480610         1.073144
 H        -0.678258         1.844074         0.857341
 H        -0.529376         1.886275        -0.971947
