19
Iteration:    78
 C        -2.813337        -1.339565         1.697952
 C        -1.762132        -0.453129         1.175340
 C        -1.986052         0.370871        -0.128604
 C        -1.589765        -0.758783        -1.112127
 C        -0.663615        -1.223803         0.043240
 O        -0.101581        -2.525165         0.334650
 C         0.224589        -0.015739         0.091714
 O         1.394168        -0.084107         0.375338
 C        -0.704784         1.133016         0.004520
 H        -2.497665        -2.380431         1.503406
 H        -2.977542        -1.267382         2.771719
 H        -3.780690        -1.314334         1.303497
 H        -1.135020         0.054093         1.897451
 H        -2.848824         0.915439        -0.319006
 H        -2.378954        -1.469701        -1.199138
 H        -1.291528        -0.514457        -2.161390
 H         0.784798        -2.199642         0.718852
 H        -0.603514         1.712616         0.888328
 H        -0.550655         1.765176        -0.892945
