19
Iteration:  2474charge 0 multiplicity 1
 C        -3.079855        -1.481659         1.446248
 C        -1.839971        -0.574590         1.267967
 C        -1.978146         0.351633        -0.017134
 C        -1.466583        -0.782185        -0.964750
 C        -0.614388        -1.177059         0.327068
 O        -0.159633        -2.469166         0.503084
 C         0.321749         0.102124         0.189607
 O         1.535335        -0.055632         0.005352
 C        -0.685337         1.194197        -0.115040
 H        -3.578492        -1.129950         2.445854
 H        -3.761473        -1.467411         0.695116
 H        -2.708092        -2.470744         1.621979
 H        -1.631768        -0.024750         2.151977
 H        -2.857219         1.037822        -0.204839
 H        -2.137993        -1.584599        -1.268926
 H        -0.903588        -0.746912        -1.829042
 H         0.824947        -2.393877         0.293797
 H        -0.631488         2.049278         0.626137
 H        -0.648496         1.649769        -1.134774
