19
Iteration:  4068charge 0 multiplicity 1
 C        -2.996284        -1.408093         1.604265
 C        -1.756403        -0.628833         1.144838
 C        -2.036096         0.343954        -0.110215
 C        -1.572253        -0.872751        -0.980333
 C        -0.642386        -1.208469         0.212031
 O        -0.160140        -2.420738         0.433492
 C         0.295184         0.010072         0.234637
 O         1.516640         0.094970         0.360995
 C        -0.609570         1.179869        -0.281136
 H        -3.526963        -2.054238         0.752437
 H        -2.811232        -2.026171         2.483471
 H        -3.937061        -0.782657         1.820021
 H        -1.194123        -0.413534         2.071710
 H        -2.979769         0.751421        -0.295326
 H        -2.422436        -1.514435        -1.187152
 H        -1.031040        -0.722997        -1.876090
 H         0.731637        -2.429675        -0.067319
 H        -0.573796         2.140875         0.299330
 H        -0.278682         1.393112        -1.451849
