19
Iteration:  4655charge 0 multiplicity 1
 C        -3.017265        -1.544106         1.499399
 C        -1.801175        -0.506470         1.189670
 C        -1.983429         0.424701        -0.166000
 C        -1.604602        -0.839150        -0.955918
 C        -0.656442        -1.139789         0.293239
 O        -0.069270        -2.436923         0.606816
 C         0.271281        -0.021179         0.065750
 O         1.480005        -0.026026         0.189360
 C        -0.619364         1.177531        -0.170564
 H        -3.127987        -2.114718         0.483857
 H        -2.800182        -2.358909         2.181677
 H        -3.898602        -1.006861         1.874519
 H        -1.622212         0.267124         2.032078
 H        -2.851624         1.026413        -0.312016
 H        -2.450250        -1.516167        -0.980087
 H        -1.050110        -0.583256        -1.961879
 H         0.959423        -2.416072         0.543449
 H        -0.528467         1.884081         0.619300
 H        -0.403916         1.719519        -1.142100
