19
Iteration:  3296charge 0 multiplicity 1
 C        -2.907838        -1.592127         1.449501
 C        -1.907042        -0.531828         1.103672
 C        -1.907138         0.343950        -0.143167
 C        -1.433524        -0.859235        -0.931231
 C        -0.673518        -1.105892         0.348447
 O        -0.223329        -2.297310         0.678781
 C         0.305747         0.074536         0.078318
 O         1.501730        -0.114825         0.020494
 C        -0.699467         1.211465        -0.053828
 H        -3.690350        -1.722065         0.796505
 H        -2.435763        -2.596866         1.522178
 H        -3.531588        -1.258949         2.304872
 H        -1.819633         0.122742         2.024530
 H        -2.833906         0.971169        -0.274433
 H        -2.302017        -1.506617        -0.968210
 H        -0.688933        -0.901418        -1.777058
 H         0.674424        -2.476915         0.402492
 H        -0.773724         2.012013         0.720310
 H        -0.514663         1.578611        -1.019804
