19
Iteration:  1521
 C        -2.772009        -1.526458         1.636728
 C        -1.724215        -0.497565         1.152190
 C        -1.999965         0.360681        -0.151418
 C        -1.645408        -0.835322        -1.086967
 C        -0.686920        -1.204678         0.157683
 O        -0.303976        -2.469573         0.374882
 C         0.300605        -0.005397         0.145740
 O         1.493825         0.050643         0.451561
 C        -0.648206         1.199312        -0.153976
 H        -2.978162        -2.246383         0.922560
 H        -2.169188        -1.948510         2.487761
 H        -3.725717        -0.891518         1.750464
 H        -1.289558         0.092666         1.943628
 H        -2.884534         1.016797        -0.266954
 H        -2.591999        -1.397233        -1.178797
 H        -1.061445        -0.865413        -2.062721
 H         0.610317        -2.477735         0.519737
 H        -0.519943         1.975839         0.562910
 H        -0.456289         1.670380        -1.157738
