19
Iteration:  3581charge 0 multiplicity 1
 C        -3.047384        -1.444632         1.398317
 C        -1.825094        -0.490267         1.143459
 C        -2.034804         0.369283        -0.099173
 C        -1.508975        -0.895167        -1.010126
 C        -0.674451        -1.200612         0.375510
 O        -0.000285        -2.418013         0.690075
 C         0.277740         0.000935         0.139522
 O         1.481833        -0.042042         0.013241
 C        -0.676922         1.193902        -0.081194
 H        -3.558350        -1.371090         0.427953
 H        -2.729532        -2.460177         1.631172
 H        -3.928191        -1.202780         2.055268
 H        -1.504330        -0.008520         2.116335
 H        -2.994050         0.849676        -0.398011
 H        -2.359124        -1.476585        -1.248677
 H        -0.948768        -0.655252        -1.883412
 H         0.956259        -2.271283         0.985486
 H        -0.393431         1.911026         0.784127
 H        -0.498335         1.755841        -0.977033
