19
Iteration:  3911
 C        -3.122987        -1.485276         1.477518
 C        -1.820984        -0.510017         1.129797
 C        -1.943793         0.405774        -0.094926
 C        -1.432780        -0.916969        -1.010166
 C        -0.678887        -1.191617         0.304637
 O        -0.022391        -2.367504         0.580826
 C         0.230761         0.009028         0.173815
 O         1.452597        -0.037160         0.065147
 C        -0.668776         1.159301        -0.050619
 H        -3.234669        -2.191930         0.718291
 H        -3.016521        -1.881194         2.537123
 H        -3.981058        -0.813573         1.553642
 H        -1.585838        -0.126703         2.093577
 H        -2.924171         0.947082        -0.334414
 H        -2.236898        -1.657039        -1.177871
 H        -0.901016        -0.755008        -1.975398
 H         0.959643        -2.117572         0.548400
 H        -0.507151         1.950715         0.728832
 H        -0.340122         1.590152        -1.048279
