19
Iteration:  1934charge 0 multiplicity 1
 C        -3.069055        -1.366668         1.569201
 C        -1.801344        -0.504554         1.106911
 C        -2.025650         0.368965        -0.127480
 C        -1.481160        -0.906787        -1.006827
 C        -0.670304        -1.199396         0.248170
 O        -0.076906        -2.465652         0.422203
 C         0.285484        -0.011238         0.245477
 O         1.488757        -0.001570         0.027348
 C        -0.677404         1.190793         0.106869
 H        -3.396975        -2.052493         0.793366
 H        -2.626250        -2.062055         2.415072
 H        -3.884821        -0.771811         2.015563
 H        -1.414350         0.058534         2.042281
 H        -2.941308         0.885886        -0.380173
 H        -2.187000        -1.761034        -1.023860
 H        -0.866472        -0.809267        -1.920627
 H         0.774106        -2.431085         0.032195
 H        -0.648837         1.818514         0.949222
 H        -0.260868         1.860525        -0.690622
