19
Iteration:   441charge 0 multiplicity 1
 C        -3.047639        -1.316452         1.632623
 C        -1.842635        -0.573575         1.176796
 C        -1.949394         0.311948        -0.110022
 C        -1.533342        -0.843934        -1.048343
 C        -0.595375        -1.186383         0.217350
 O        -0.035260        -2.472042         0.347932
 C         0.271516         0.015229         0.105934
 O         1.477816        -0.037295         0.263912
 C        -0.714843         1.160698        -0.035093
 H        -3.699979        -1.690028         0.864122
 H        -2.992304        -2.194859         2.285918
 H        -3.702120        -0.647521         2.270379
 H        -1.378363        -0.048382         2.050709
 H        -2.878114         0.875566        -0.342010
 H        -2.216442        -1.605832        -1.312328
 H        -1.020482        -0.446735        -1.917622
 H         0.883185        -2.347554         0.514375
 H        -0.759540         1.999280         0.726718
 H        -0.506327         1.553002        -1.064112
