19
Iteration:  1626charge 0 multiplicity 1
 C        -3.094215        -1.496682         1.386773
 C        -1.847627        -0.605156         1.154523
 C        -1.977855         0.378897         0.066452
 C        -1.656348        -0.874170        -0.955703
 C        -0.663147        -1.189509         0.198440
 O        -0.038390        -2.342882         0.628076
 C         0.323123         0.009700         0.029219
 O         1.529384        -0.060830         0.064020
 C        -0.584612         1.236901        -0.008430
 H        -3.582379        -1.634469         0.394457
 H        -3.085998        -2.397347         1.907812
 H        -3.550349        -0.852747         2.038534
 H        -1.426404        -0.218375         2.122994
 H        -2.873349         0.939477        -0.258880
 H        -2.432816        -1.630897        -0.868760
 H        -1.419361        -0.669353        -2.011931
 H         0.942032        -2.189121         0.295398
 H        -0.191933         1.805758         0.887484
 H        -0.358642         1.898937        -0.894889
