19
Iteration:  4992charge 0 multiplicity 1
 C        -2.974368        -1.481235         1.441040
 C        -1.778025        -0.556130         1.141996
 C        -2.015557         0.381907        -0.160802
 C        -1.503141        -0.848167        -0.959066
 C        -0.640292        -1.129178         0.345103
 O        -0.102884        -2.397989         0.608548
 C         0.289734        -0.022157         0.162865
 O         1.497346        -0.059606         0.069539
 C        -0.741870         1.206692        -0.108434
 H        -3.671401        -1.810850         0.628127
 H        -2.630727        -2.319150         1.991087
 H        -3.689702        -0.954460         2.086772
 H        -1.470308        -0.024600         2.122933
 H        -2.875614         0.956034        -0.242209
 H        -2.295108        -1.720270        -1.059715
 H        -1.164996        -0.772010        -1.911675
 H         0.834847        -2.261963         0.695901
 H        -0.739842         2.037239         0.585641
 H        -0.378505         1.683901        -0.960094
