19
Iteration:  2993
 C        -2.940001        -1.473366         1.392668
 C        -1.885359        -0.533253         1.158862
 C        -1.952681         0.313234        -0.160494
 C        -1.385513        -0.913957        -0.898290
 C        -0.614689        -1.089631         0.396580
 O        -0.224445        -2.475240         0.661898
 C         0.238416         0.090832         0.154630
 O         1.463780         0.019358        -0.002874
 C        -0.677807         1.201396        -0.117269
 H        -3.862237        -0.953521         1.210552
 H        -2.927061        -2.447295         0.680234
 H        -2.763971        -1.813660         2.485013
 H        -1.559152        -0.049259         2.093754
 H        -2.901165         0.845541        -0.407247
 H        -2.123209        -1.714933        -0.989768
 H        -0.809210        -0.817684        -1.817506
 H         0.628346        -2.443773         1.033647
 H        -0.738040         2.239828         0.365802
 H        -0.301637         1.422814        -1.177585
