19
Iteration:   117
 C        -3.084255        -1.414659         1.800544
 C        -1.841915        -0.545303         1.194166
 C        -1.983129         0.426131        -0.120051
 C        -1.645790        -0.864032        -1.048048
 C        -0.625177        -1.187791         0.171752
 O         0.013981        -2.366259         0.155234
 C         0.308875         0.015974         0.205783
 O         1.505852        -0.158147         0.371683
 C        -0.651616         1.187903        -0.155401
 H        -2.875632        -2.416082         1.401977
 H        -3.028646        -1.564725         2.878483
 H        -4.017082        -0.992210         1.314479
 H        -1.417197        -0.081200         2.100314
 H        -2.894074         1.083326        -0.327644
 H        -2.469934        -1.573034        -0.832670
 H        -1.340243        -0.616478        -2.054847
 H         1.027134        -2.314055         0.325892
 H        -0.630140         2.116039         0.523334
 H        -0.525100         1.440500        -1.209912
