19
Iteration:  4709charge 0 multiplicity 1
 C        -3.044798        -1.367265         1.434322
 C        -1.880883        -0.571093         1.193391
 C        -1.966442         0.353763        -0.147493
 C        -1.577820        -0.910019        -0.963073
 C        -0.720801        -1.180214         0.313896
 O         0.066994        -2.419679         0.556442
 C         0.281354        -0.001357         0.115629
 O         1.489160        -0.053886         0.093627
 C        -0.666016         1.193306        -0.066282
 H        -3.396468        -2.220317         0.727385
 H        -2.772417        -1.889787         2.356522
 H        -3.796548        -0.625232         1.743877
 H        -1.756221         0.165549         2.090581
 H        -2.893757         0.810074        -0.363872
 H        -2.461031        -1.585581        -1.099827
 H        -0.926355        -0.808240        -2.052820
 H         0.984603        -2.053345         0.615597
 H        -0.571236         1.651868         0.955881
 H        -0.533671         2.034800        -0.802599
