19
Iteration:  4940
 C        -2.949846        -1.528750         1.528087
 C        -1.903598        -0.596073         1.113912
 C        -2.016847         0.366608        -0.147812
 C        -1.574382        -0.840079        -0.991304
 C        -0.627006        -1.132118         0.241149
 O        -0.085959        -2.358338         0.643736
 C         0.279441         0.048069         0.182836
 O         1.473996        -0.107773         0.113416
 C        -0.619293         1.214528        -0.110117
 H        -3.241643        -2.339915         0.708502
 H        -2.481317        -2.137567         2.319426
 H        -3.783282        -0.957558         1.908773
 H        -1.558881         0.013714         1.951186
 H        -2.832910         0.966461        -0.504368
 H        -2.504841        -1.342521        -1.111951
 H        -1.164903        -0.502671        -2.063654
 H         0.906495        -2.205739         0.596180
 H        -0.415411         2.011369         0.594082
 H        -0.330568         1.676380        -1.168891
