19
Iteration:  3897charge 0 multiplicity 1
 C        -3.109953        -1.401187         1.465069
 C        -1.901065        -0.688242         1.214294
 C        -1.915538         0.304477        -0.197727
 C        -1.433031        -0.793369        -0.988348
 C        -0.675625        -1.172869         0.407418
 O         0.048991        -2.337693         0.571779
 C         0.208165         0.022510         0.212333
 O         1.402706        -0.139825         0.020031
 C        -0.623229         1.268783        -0.088341
 H        -3.219295        -2.275779         0.838528
 H        -3.078535        -1.876288         2.397317
 H        -3.996255        -0.765534         1.511767
 H        -1.577408        -0.038547         2.004593
 H        -2.932713         0.749544        -0.384571
 H        -2.310171        -1.562266        -1.219132
 H        -0.706312        -0.698639        -1.832490
 H         0.928695        -2.014952         0.327606
 H        -0.651205         2.057738         0.709400
 H        -0.412858         1.693395        -0.977104
