19
Iteration:  2270charge 0 multiplicity 1
 C        -2.912892        -1.381400         1.667481
 C        -1.840977        -0.569866         1.145145
 C        -2.020195         0.443351        -0.106296
 C        -1.735128        -0.839282        -0.959674
 C        -0.671208        -1.194162         0.136860
 O         0.043776        -2.416419         0.291960
 C         0.277360        -0.020237         0.110559
 O         1.470994        -0.205647         0.241607
 C        -0.624220         1.282349         0.007301
 H        -3.126869        -2.215216         0.989702
 H        -2.725028        -1.924465         2.651756
 H        -3.870701        -0.875052         1.681135
 H        -1.427534        -0.000222         2.010714
 H        -2.957923         0.916363        -0.349787
 H        -2.460565        -1.660648        -1.007267
 H        -1.364130        -0.642284        -1.990002
 H         0.941702        -2.062537         0.557484
 H        -0.535559         1.967119         0.885674
 H        -0.513287         1.907438        -0.851094
