19
Iteration:  1893charge 0 multiplicity 1
 C        -2.960469        -1.506344         1.563004
 C        -1.810089        -0.583383         1.053876
 C        -2.033291         0.417252        -0.068204
 C        -1.559670        -0.733345        -1.052073
 C        -0.649698        -1.170680         0.204685
 O        -0.067984        -2.372100         0.584929
 C         0.295300        -0.007283         0.130405
 O         1.493640        -0.173639         0.122041
 C        -0.691879         1.198689        -0.037354
 H        -3.567836        -1.684824         0.708528
 H        -2.635414        -2.411555         2.134216
 H        -3.681853        -0.880330         2.180650
 H        -1.451514        -0.132043         2.017675
 H        -2.986350         0.957633         0.048370
 H        -2.247079        -1.568127        -1.299026
 H        -1.228906        -0.343367        -2.057901
 H         0.911502        -2.118867         0.820821
 H        -0.667977         1.938067         0.787887
 H        -0.469646         1.703637        -1.048309
