19
Iteration:  3150charge 0 multiplicity 1
 C        -2.755462        -1.353350         1.708774
 C        -1.652720        -0.529108         1.186550
 C        -1.917791         0.314717        -0.141040
 C        -1.608083        -0.900513        -1.139814
 C        -0.656151        -1.187545         0.002389
 O        -0.175302        -2.458806         0.444293
 C         0.234815        -0.016001         0.054255
 O         1.331287         0.036082         0.575358
 C        -0.718614         1.189676        -0.265825
 H        -3.115946        -2.092236         0.852706
 H        -2.488850        -1.995106         2.527419
 H        -3.660023        -0.899898         2.030617
 H        -1.315312         0.056284         2.042772
 H        -2.870718         0.773094        -0.312922
 H        -2.391881        -1.644766        -1.356946
 H        -1.084657        -0.637789        -2.040195
 H         0.412160        -2.398276         1.215321
 H        -0.703463         2.058459         0.368206
 H        -0.527086         1.443992        -1.361408
