19
Iteration:  1598charge 0 multiplicity 1
 C        -3.065849        -1.446867         1.369335
 C        -1.787105        -0.589415         1.178423
 C        -1.970690         0.393012         0.028810
 C        -1.693328        -0.742508        -0.957061
 C        -0.668535        -1.221224         0.391250
 O         0.034765        -2.425857         0.530484
 C         0.290467        -0.014606         0.148880
 O         1.529249        -0.068987         0.120284
 C        -0.676502         1.170797        -0.145082
 H        -3.470954        -1.569669         0.391961
 H        -2.837731        -2.512066         1.822054
 H        -3.817202        -0.753513         2.009313
 H        -1.391753        -0.140864         2.117872
 H        -2.887512         0.992080        -0.122440
 H        -2.416247        -1.569932        -1.073707
 H        -1.313983        -0.499906        -1.980761
 H         0.857160        -2.114675        -0.016488
 H        -0.446271         1.957821         0.548516
 H        -0.569375         1.646158        -1.135391
