19
Iteration:  2314
 C        -2.826045        -1.434717         1.687666
 C        -1.721523        -0.507006         1.141733
 C        -2.038746         0.371876        -0.039512
 C        -1.584770        -0.749256        -0.996895
 C        -0.696436        -1.204127         0.168413
 O        -0.181686        -2.526284         0.221326
 C         0.270238        -0.000221         0.187379
 O         1.461058        -0.045386         0.379887
 C        -0.657440         1.209282        -0.192514
 H        -3.153683        -2.278193         1.083662
 H        -2.637944        -1.889518         2.762357
 H        -3.777095        -0.928825         1.887394
 H        -1.252661         0.016436         2.037780
 H        -3.027360         0.840191        -0.136090
 H        -2.544371        -1.255468        -1.198133
 H        -1.181795        -0.591840        -2.023492
 H         0.857855        -2.476792         0.211526
 H        -0.443506         1.988711         0.573742
 H        -0.390361         1.601995        -1.156707
