19
Iteration:  3066
 C        -2.983862        -1.400899         1.477193
 C        -1.807311        -0.569377         1.165346
 C        -1.996627         0.325100        -0.142303
 C        -1.510104        -0.860881        -1.022062
 C        -0.650263        -1.229450         0.230758
 O         0.056704        -2.334512         0.688402
 C         0.206327         0.036539         0.136006
 O         1.418957        -0.154845         0.149062
 C        -0.737461         1.216886        -0.121748
 H        -3.692696        -1.088260         0.719265
 H        -2.849693        -2.401419         1.163207
 H        -3.383444        -1.236788         2.491579
 H        -1.442769         0.045187         2.011804
 H        -2.900225         0.696305        -0.595881
 H        -2.372038        -1.583435        -1.207171
 H        -0.998747        -0.523394        -1.936792
 H         0.868953        -1.895905         0.891550
 H        -0.511080         2.037626         0.601734
 H        -0.708816         1.671036        -1.069960
