19
Iteration:  4625charge 0 multiplicity 1
 C        -2.855479        -1.476118         1.574888
 C        -1.728548        -0.492758         1.055859
 C        -1.989869         0.388339        -0.217250
 C        -1.645399        -0.937101        -1.022500
 C        -0.701428        -1.131817         0.239857
 O        -0.182469        -2.415739         0.517725
 C         0.318405         0.022837         0.167269
 O         1.524626        -0.023615         0.286319
 C        -0.684485         1.161013        -0.122606
 H        -3.512829        -1.973518         0.757593
 H        -2.296671        -2.187380         2.157127
 H        -3.688860        -1.108527         2.141377
 H        -1.547420         0.188336         1.826384
 H        -2.904463         1.000266        -0.215196
 H        -2.411617        -1.622703        -1.105109
 H        -1.241628        -0.840284        -1.968665
 H         0.664694        -2.374863         0.986054
 H        -0.813435         1.879712         0.660733
 H        -0.413023         1.769875        -1.072401
