19
Iteration:  4532
 C        -2.924910        -1.318767         1.590893
 C        -1.684179        -0.502219         1.178450
 C        -1.964457         0.327356        -0.169574
 C        -1.685911        -0.933446        -0.902630
 C        -0.750436        -1.203122         0.181120
 O         0.011681        -2.377831         0.300685
 C         0.245675        -0.048229         0.126592
 O         1.401412        -0.027609         0.474105
 C        -0.677128         1.145630        -0.276477
 H        -3.209768        -1.847800         0.811371
 H        -2.689347        -1.991282         2.433036
 H        -3.844129        -0.787157         1.765532
 H        -1.073548         0.042482         1.981068
 H        -2.924739         0.825518        -0.325382
 H        -2.509154        -1.701242        -1.061914
 H        -1.195416        -0.721452        -1.865162
 H         0.787985        -2.259771         0.808806
 H        -0.468904         1.854119         0.565266
 H        -0.322698         1.579805        -1.110196
