19
Iteration:  3134charge 0 multiplicity 1
 C        -2.793956        -1.421605         1.599984
 C        -1.650579        -0.484484         1.122069
 C        -2.037823         0.315237        -0.166156
 C        -1.596038        -0.872087        -1.018637
 C        -0.668364        -1.236614         0.235426
 O        -0.221056        -2.499477         0.415353
 C         0.299545        -0.006263         0.044018
 O         1.401091         0.122467         0.538535
 C        -0.693732         1.124769        -0.323871
 H        -3.344202        -1.744598         0.783584
 H        -2.398491        -2.318034         2.213635
 H        -3.433312        -0.685410         2.189657
 H        -1.047014         0.092647         1.840477
 H        -3.055857         0.795883        -0.239196
 H        -2.402514        -1.576647        -1.265196
 H        -1.076477        -0.584554        -1.971949
 H         0.507115        -2.325115         1.119184
 H        -0.486946         1.804063         0.552125
 H        -0.592175         1.658675        -1.256087
