19
Iteration:  4849
 C        -2.893333        -1.339491         1.729301
 C        -1.787139        -0.512619         1.087247
 C        -1.971131         0.349812        -0.115922
 C        -1.530712        -0.939427        -1.076493
 C        -0.659075        -1.238799         0.128032
 O        -0.075367        -2.359050         0.363268
 C         0.207208         0.005044         0.174403
 O         1.390568        -0.003818         0.434462
 C        -0.662471         1.104029        -0.220373
 H        -3.524513        -1.886809         0.942437
 H        -2.598746        -2.147986         2.409841
 H        -3.689669        -0.716734         2.209913
 H        -1.372881         0.077790         1.999888
 H        -2.901949         0.900333        -0.195616
 H        -2.436668        -1.825612        -1.222293
 H        -1.036294        -0.757574        -2.033870
 H         0.937991        -2.335928         0.461320
 H        -0.473287         1.939359         0.530185
 H        -0.523992         1.531244        -1.199233
