19
Iteration:  3865
 C        -3.116040        -1.385190         1.387931
 C        -1.935536        -0.557399         1.148874
 C        -1.997505         0.309969        -0.084526
 C        -1.522681        -0.866832        -0.973790
 C        -0.609587        -1.188332         0.323964
 O         0.028844        -2.297364         0.625763
 C         0.309630        -0.023708         0.074045
 O         1.516550        -0.114312         0.034764
 C        -0.658556         1.176755         0.018736
 H        -3.201076        -1.989942         0.547144
 H        -2.883562        -1.973948         2.249679
 H        -4.035532        -0.850897         1.613587
 H        -1.848530         0.045265         2.000623
 H        -2.951275         0.875757        -0.356954
 H        -2.382776        -1.657052        -1.000985
 H        -1.008332        -0.919004        -1.958986
 H         1.017312        -2.012396         0.660956
 H        -0.605426         1.852786         0.922468
 H        -0.590879         1.744786        -0.849680
