19
Iteration:  3288charge 0 multiplicity 1
 C        -2.919725        -1.549403         1.460421
 C        -1.904283        -0.465413         1.117255
 C        -1.986223         0.333972        -0.136616
 C        -1.476199        -0.930011        -0.953710
 C        -0.685422        -1.083763         0.354709
 O        -0.192144        -2.353004         0.653744
 C         0.321827         0.096654         0.134659
 O         1.520971        -0.088456         0.033388
 C        -0.656487         1.206976        -0.027302
 H        -3.617509        -1.680718         0.620055
 H        -2.510303        -2.586197         1.701823
 H        -3.547353        -1.301407         2.335921
 H        -1.535300        -0.012641         2.118242
 H        -2.896496         0.785677        -0.634886
 H        -2.175435        -1.754331        -1.151339
 H        -0.927693        -0.826719        -1.975794
 H         0.631687        -2.502088         0.122372
 H        -0.775112         2.068131         0.622897
 H        -0.365307         1.685485        -0.999412
