19
Iteration:  1703
 C        -2.862954        -1.497405         1.632290
 C        -1.804048        -0.546904         1.106578
 C        -2.030863         0.400280        -0.139261
 C        -1.721923        -0.798904        -1.075244
 C        -0.649140        -1.155789         0.124044
 O        -0.207246        -2.439641         0.492906
 C         0.370321         0.017825         0.094492
 O         1.570568        -0.030782         0.313778
 C        -0.662989         1.188892        -0.047330
 H        -3.001048        -2.303545         0.788320
 H        -2.571704        -2.077924         2.517463
 H        -3.824970        -1.114464         1.898248
 H        -1.320510         0.072319         1.860254
 H        -2.963942         0.996983        -0.084774
 H        -2.414556        -1.638811        -1.103483
 H        -1.308234        -0.661860        -2.099084
 H         0.733507        -2.498636         0.427218
 H        -0.544935         1.927764         0.767947
 H        -0.393576         1.645212        -1.085057
