19
Iteration:  4738charge 0 multiplicity 1
 C        -3.049980        -1.408685         1.533563
 C        -1.810393        -0.576519         1.225689
 C        -1.941420         0.349905        -0.193949
 C        -1.544123        -0.907013        -1.032155
 C        -0.659566        -1.133230         0.268967
 O        -0.098142        -2.391089         0.526543
 C         0.290240        -0.000243         0.209826
 O         1.513213        -0.003345         0.141508
 C        -0.681762         1.146816        -0.152830
 H        -3.401072        -1.964870         0.738112
 H        -2.573586        -2.036377         2.334413
 H        -3.946684        -0.903561         1.963878
 H        -1.421901        -0.062601         2.044236
 H        -2.901723         0.915250        -0.351582
 H        -2.207170        -1.825712        -1.164345
 H        -1.236350        -0.829978        -1.950754
 H         0.906767        -2.159606         0.604076
 H        -0.808746         1.799563         0.804439
 H        -0.419006         1.840837        -0.883620
