19
Iteration:   381
 C        -2.754601        -1.551580         1.587059
 C        -1.801804        -0.463480         1.160762
 C        -1.984895         0.448928        -0.110917
 C        -1.586216        -0.808386        -1.003925
 C        -0.718510        -1.109251         0.207169
 O        -0.270282        -2.457558         0.390802
 C         0.303898        -0.029176         0.118800
 O         1.468903        -0.069972         0.468913
 C        -0.703946         1.182294        -0.271318
 H        -2.972854        -2.096423         0.637928
 H        -1.983004        -2.123280         2.144765
 H        -3.655063        -1.317788         2.145122
 H        -1.269767        -0.018277         1.998363
 H        -2.915115         1.011290        -0.153563
 H        -2.388674        -1.528994        -1.156567
 H        -1.075718        -0.572974        -1.963101
 H         0.723362        -2.290259         0.356993
 H        -0.434332         1.988765         0.409135
 H        -0.401028         1.470379        -1.279198
