19
Iteration:  3459charge 0 multiplicity 1
 C        -2.768430        -1.480112         1.654822
 C        -1.757856        -0.332629         1.116169
 C        -2.004636         0.397822        -0.171079
 C        -1.713932        -0.944492        -0.980244
 C        -0.694806        -1.163013         0.115021
 O        -0.167750        -2.468953         0.375857
 C         0.262568         0.004646         0.160391
 O         1.413015         0.023281         0.595203
 C        -0.635802         1.099581        -0.338586
 H        -2.460813        -2.480403         1.174804
 H        -2.479515        -1.834214         2.615870
 H        -3.819489        -1.383039         1.372541
 H        -1.301057         0.195114         1.924142
 H        -2.819695         1.011750        -0.620238
 H        -2.498472        -1.605350        -1.137718
 H        -1.064176        -0.673425        -1.786311
 H         0.772975        -2.376419         0.445234
 H        -0.280828         1.991036         0.286063
 H        -0.365276         1.421234        -1.339305
