19
Iteration:  2289
 C        -2.962394        -1.478155         1.768024
 C        -1.830303        -0.454944         1.178549
 C        -1.933190         0.395756        -0.129126
 C        -1.637677        -0.842435        -1.016042
 C        -0.724535        -1.134947         0.161380
 O        -0.056280        -2.343453         0.165666
 C         0.296887        -0.002063         0.179834
 O         1.494337        -0.159680         0.289314
 C        -0.637041         1.136089        -0.071971
 H        -3.177158        -2.510529         1.243261
 H        -2.688078        -1.709659         2.714443
 H        -3.957698        -1.113208         1.999799
 H        -1.450388         0.081247         2.110279
 H        -2.857275         0.981761        -0.246319
 H        -2.532168        -1.543450        -1.081116
 H        -1.235185        -0.805484        -2.021953
 H         0.900642        -2.144553         0.449587
 H        -0.675887         1.855876         0.767707
 H        -0.328783         1.639547        -0.935377
