19
Iteration:   952charge 0 multiplicity 1
 C        -3.021589        -1.340837         1.775510
 C        -1.842443        -0.468294         1.109817
 C        -1.983494         0.351986        -0.117141
 C        -1.632330        -0.867736        -1.047055
 C        -0.619680        -1.242205         0.068200
 O         0.065161        -2.401478         0.244739
 C         0.244027        -0.076995         0.132386
 O         1.464579        -0.116302         0.391584
 C        -0.735041         1.162565        -0.080806
 H        -3.459966        -1.997517         1.078811
 H        -2.584465        -2.045673         2.548543
 H        -3.492608        -0.572325         2.360808
 H        -1.423279         0.115878         1.931695
 H        -2.871724         1.026981        -0.308772
 H        -2.309625        -1.683868        -1.183551
 H        -1.067419        -0.639615        -1.944576
 H         0.849084        -1.868417         0.641578
 H        -0.740888         1.967724         0.658880
 H        -0.422463         1.862208        -0.924059
