19
Iteration:  2552charge 0 multiplicity 1
 C        -2.926729        -1.504451         1.564085
 C        -1.813043        -0.489511         1.142241
 C        -1.931326         0.378287        -0.132204
 C        -1.620808        -0.841023        -1.044414
 C        -0.688435        -1.231576         0.258326
 O        -0.091807        -2.366665         0.475828
 C         0.258908         0.018525         0.138832
 O         1.473349        -0.099247         0.299193
 C        -0.670797         1.210331        -0.165746
 H        -2.446167        -2.305432         2.244188
 H        -3.623910        -0.956128         2.111370
 H        -3.440937        -1.941841         0.738944
 H        -1.468167         0.037367         2.024762
 H        -2.931393         0.850746        -0.200161
 H        -2.475642        -1.519666        -1.185074
 H        -1.092007        -0.457706        -1.891630
 H         0.821408        -2.155206         0.409939
 H        -0.463844         2.073355         0.547795
 H        -0.413495         1.453245        -1.191578
