19
Iteration:  2086charge 0 multiplicity 1
 C        -2.921042        -1.398809         1.631353
 C        -1.658573        -0.551153         1.164194
 C        -1.998641         0.334984        -0.067113
 C        -1.693229        -0.861908        -0.944640
 C        -0.685087        -1.186651         0.146692
 O        -0.157753        -2.467014         0.230046
 C         0.299507        -0.008901         0.110513
 O         1.493568         0.090342         0.340714
 C        -0.603144         1.134097        -0.120170
 H        -3.575500        -1.405169         0.818671
 H        -2.781175        -2.533281         1.978046
 H        -3.448198        -0.810035         2.348771
 H        -1.268425        -0.062572         2.072567
 H        -2.917319         0.884903        -0.142112
 H        -2.382741        -1.682530        -1.146846
 H        -1.091130        -0.701893        -1.838229
 H         0.296735        -2.627030         1.085284
 H        -0.538471         1.737145         0.816239
 H        -0.675240         1.803134        -1.044659
