19
Iteration:  3928charge 0 multiplicity 1
 C        -2.981204        -1.423315         1.444832
 C        -1.910277        -0.526738         1.151065
 C        -2.019334         0.320292        -0.163409
 C        -1.640710        -0.883380        -0.952507
 C        -0.625463        -1.163878         0.236831
 O        -0.086532        -2.443899         0.607113
 C         0.356064         0.014640         0.101462
 O         1.594144         0.015607         0.169497
 C        -0.676122         1.188865        -0.086535
 H        -3.258905        -2.193145         0.635075
 H        -2.715544        -2.009465         2.274696
 H        -3.974902        -0.940683         1.539344
 H        -1.511961         0.095662         1.991879
 H        -2.939079         0.863756        -0.300403
 H        -2.384317        -1.723838        -1.071006
 H        -1.158009        -0.676578        -1.913817
 H         0.858336        -2.432101         0.846685
 H        -0.681660         1.806272         0.822409
 H        -0.520265         1.859671        -0.891432
