19
Iteration:   143charge 0 multiplicity 1
 C        -2.933742        -1.305275         1.476047
 C        -1.731507        -0.540689         1.232452
 C        -1.946415         0.362408         0.019056
 C        -1.737230        -0.853515        -0.898726
 C        -0.678494        -1.267982         0.201492
 O        -0.037226        -2.475291         0.256384
 C         0.266956        -0.049623         0.049530
 O         1.472613         0.029682         0.362588
 C        -0.633259         1.152913        -0.136650
 H        -2.885051        -2.218048         0.851576
 H        -2.914174        -1.695846         2.503513
 H        -3.848843        -0.828180         1.251584
 H        -1.401553        -0.111551         2.199742
 H        -2.828137         0.893851        -0.172766
 H        -2.678473        -1.343549        -0.934055
 H        -1.496427        -0.544486        -1.926565
 H         0.818555        -2.286232         0.641287
 H        -0.474043         1.831949         0.659516
 H        -0.663321         1.563164        -1.157959
