19
Iteration:  2217charge 0 multiplicity 1
 C        -3.036900        -1.513305         1.517616
 C        -1.830532        -0.620992         1.153367
 C        -1.930990         0.475696         0.060730
 C        -1.607788        -0.776934        -0.894984
 C        -0.560785        -1.179939         0.276587
 O        -0.212266        -2.496191         0.445303
 C         0.368137         0.006552         0.144523
 O         1.572040         0.029888         0.048175
 C        -0.666076         1.206711        -0.151464
 H        -3.594011        -1.798126         0.677934
 H        -2.629943        -2.544979         1.959626
 H        -3.747925        -1.227790         2.299350
 H        -1.595113        -0.130939         2.070533
 H        -2.880108         0.984746         0.015709
 H        -2.532704        -1.353253        -0.943592
 H        -1.245357        -0.630668        -1.938769
 H         0.698711        -2.615266         0.402760
 H        -0.526661         2.024491         0.615004
 H        -0.652376         1.695034        -1.195081
