19
Iteration:  3177
 C        -2.792265        -1.396290         1.747323
 C        -1.820086        -0.516390         1.077237
 C        -2.018241         0.372950        -0.324867
 C        -1.727365        -0.901948        -1.000423
 C        -0.659979        -1.164247         0.156573
 O        -0.067255        -2.405333         0.306630
 C         0.305756        -0.056668         0.158119
 O         1.429480        -0.027392         0.611328
 C        -0.654454         1.175857        -0.272767
 H        -2.932103        -2.316579         1.298524
 H        -2.292748        -1.598334         2.762643
 H        -3.825076        -0.930781         1.774235
 H        -1.543345         0.292081         1.870370
 H        -3.044707         0.793598        -0.525481
 H        -2.544422        -1.645520        -0.919714
 H        -1.242451        -0.945657        -2.029521
 H         0.871365        -2.211499         0.438347
 H        -0.697307         1.961523         0.516076
 H        -0.281718         1.478642        -1.225198
