19
Iteration:   966
 C        -2.948056        -1.316619         1.709425
 C        -1.836907        -0.506993         1.198587
 C        -1.988313         0.353230        -0.183497
 C        -1.647857        -0.889907        -1.042615
 C        -0.638481        -1.223193         0.116210
 O         0.066175        -2.459511         0.272754
 C         0.222628         0.050938         0.211486
 O         1.434443        -0.080225         0.340236
 C        -0.648907         1.180206        -0.065039
 H        -3.525049        -1.885824         0.886914
 H        -2.634779        -2.039182         2.471131
 H        -3.784378        -0.739169         2.107526
 H        -1.323215         0.074445         1.996702
 H        -2.948811         0.881964        -0.367578
 H        -2.627300        -1.491987        -1.111028
 H        -1.398415        -0.759308        -2.111671
 H         1.027303        -2.479617         0.364088
 H        -0.693737         1.811946         0.814083
 H        -0.399811         1.601344        -1.055484
