19
Iteration:  3263
 C        -2.983821        -1.430294         1.494890
 C        -1.811522        -0.539481         1.089604
 C        -1.936558         0.379385        -0.155510
 C        -1.590501        -0.835737        -0.975366
 C        -0.632225        -1.219968         0.317527
 O        -0.084369        -2.465498         0.622374
 C         0.267994        -0.005353         0.119396
 O         1.504145         0.069200         0.153540
 C        -0.702807         1.138825        -0.133844
 H        -3.452512        -1.773215         0.651579
 H        -2.765905        -2.306779         2.137813
 H        -3.684559        -0.839119         2.137011
 H        -1.513309         0.014329         2.050988
 H        -2.943754         0.872337        -0.238545
 H        -2.439658        -1.520387        -1.084463
 H        -1.057952        -0.895091        -1.957547
 H         0.850236        -2.571889         0.218336
 H        -0.780694         1.902272         0.684525
 H        -0.386189         1.725287        -0.952632
