19
Iteration:  2812
 C        -2.942712        -1.542130         1.588014
 C        -1.899122        -0.526043         1.077249
 C        -1.936264         0.381486        -0.217878
 C        -1.536428        -0.897184        -1.071362
 C        -0.660267        -1.164999         0.231626
 O        -0.077741        -2.332753         0.682654
 C         0.248146         0.010700         0.109383
 O         1.429122        -0.057276         0.298697
 C        -0.612224         1.195755        -0.217703
 H        -3.811959        -1.004995         2.152665
 H        -3.393876        -2.209541         0.905464
 H        -2.417674        -2.087937         2.343594
 H        -1.746695         0.138136         1.878834
 H        -2.873507         1.002672        -0.385765
 H        -2.343202        -1.644291        -1.223953
 H        -1.039619        -0.622214        -2.035564
 H         0.856262        -2.232866         0.548458
 H        -0.665470         2.027927         0.477497
 H        -0.255465         1.496342        -1.208327
