19
Iteration:  1628
 C        -3.084840        -1.488662         1.393338
 C        -1.842268        -0.617186         1.137402
 C        -1.986229         0.375738         0.050716
 C        -1.643408        -0.868880        -0.966019
 C        -0.670548        -1.182675         0.225086
 O        -0.046208        -2.346499         0.620358
 C         0.321000         0.003161         0.033575
 O         1.536794        -0.064881         0.058132
 C        -0.587617         1.248005         0.002429
 H        -3.570692        -1.632783         0.470218
 H        -3.106109        -2.454272         1.954149
 H        -3.615947        -0.875801         2.100288
 H        -1.365060        -0.175342         2.111028
 H        -2.851632         0.971472        -0.266489
 H        -2.414198        -1.654650        -0.886127
 H        -1.384552        -0.643772        -2.053811
 H         0.930976        -2.191391         0.361911
 H        -0.241348         1.771974         0.885496
 H        -0.434860         1.944718        -0.911052
