19
Iteration:  3448
 C        -2.746157        -1.414423         1.625334
 C        -1.772458        -0.408725         1.217055
 C        -1.943369         0.339722        -0.233639
 C        -1.653764        -0.871242        -1.061262
 C        -0.628965        -1.228224         0.119395
 O        -0.198175        -2.444881         0.390169
 C         0.255749        -0.030315         0.164824
 O         1.397419         0.039813         0.560568
 C        -0.655471         1.102553        -0.285435
 H        -2.492929        -2.344324         1.025949
 H        -2.661291        -1.550929         2.701841
 H        -3.823724        -1.191270         1.579905
 H        -1.450024         0.307040         1.932749
 H        -2.893890         0.928118        -0.258233
 H        -2.397310        -1.611197        -1.016228
 H        -1.415696        -0.873864        -2.118438
 H         0.773095        -2.344205         0.388180
 H        -0.764873         1.976210         0.445255
 H        -0.466554         1.427892        -1.301508
