19
Iteration:  1584
 C        -3.007819        -1.432583         1.482359
 C        -1.815104        -0.590692         1.232696
 C        -2.034596         0.353794        -0.051800
 C        -1.527874        -0.764726        -1.008869
 C        -0.620301        -1.137906         0.280117
 O        -0.053046        -2.421608         0.453010
 C         0.272251         0.016139         0.159285
 O         1.474181        -0.107040         0.135776
 C        -0.662856         1.198708        -0.112275
 H        -3.648727        -1.785609         0.645410
 H        -2.844004        -2.365342         2.109753
 H        -3.665619        -0.913743         2.260887
 H        -1.574055        -0.079322         2.248989
 H        -3.040398         0.818362        -0.079183
 H        -2.290389        -1.515371        -1.272804
 H        -0.921125        -0.381960        -1.887988
 H         0.882081        -2.450093         0.519067
 H        -0.597654         2.026133         0.577438
 H        -0.414234         1.504256        -1.183088
