19
Iteration:  4497charge 0 multiplicity 1
 C        -2.997115        -1.442042         1.688014
 C        -1.859285        -0.554335         1.067218
 C        -2.044234         0.352210        -0.222665
 C        -1.592137        -0.834718        -0.987322
 C        -0.642352        -1.171266         0.236032
 O        -0.116093        -2.450460         0.472050
 C         0.341419         0.003601         0.133821
 O         1.547710        -0.022448         0.321206
 C        -0.653821         1.217345        -0.198564
 H        -3.266639        -2.199256         1.075788
 H        -2.585223        -1.950030         2.551481
 H        -3.809046        -0.833621         2.073397
 H        -1.326486        -0.091972         1.972099
 H        -3.071633         0.804621        -0.335689
 H        -2.351864        -1.626592        -1.195612
 H        -0.936522        -0.664937        -1.934413
 H         0.798197        -2.264808         0.088859
 H        -0.705333         1.953683         0.649226
 H        -0.415555         1.702676        -1.094741
