19
Iteration:  4183
 C        -3.060718        -1.441875         1.328265
 C        -1.838419        -0.562176         1.121618
 C        -1.989484         0.313795        -0.070444
 C        -1.550645        -0.904821        -0.914059
 C        -0.673191        -1.182152         0.287288
 O        -0.049822        -2.427558         0.625375
 C         0.327088         0.061558         0.131386
 O         1.552506        -0.023751         0.082268
 C        -0.680293         1.246903        -0.031479
 H        -3.628153        -1.589953         0.466470
 H        -2.853960        -2.296045         2.023773
 H        -3.747590        -0.821886         1.860453
 H        -1.407423        -0.106894         2.089966
 H        -3.022106         0.789717        -0.270281
 H        -2.348446        -1.630893        -0.968864
 H        -1.140372        -0.820659        -1.969886
 H         0.891207        -2.341331         0.549329
 H        -0.764209         2.092838         0.766367
 H        -0.561013         1.683473        -0.959064
