19
Iteration:  3985
 C        -2.800047        -1.486776         1.716939
 C        -1.833071        -0.483638         1.116001
 C        -2.006151         0.422314        -0.260654
 C        -1.605462        -0.833339        -1.088731
 C        -0.668298        -1.154074         0.195854
 O        -0.137769        -2.414566         0.443809
 C         0.288789        -0.055790         0.184497
 O         1.469324        -0.035723         0.512093
 C        -0.745103         1.155596        -0.334546
 H        -3.337973        -1.810318         0.901433
 H        -2.328607        -2.386601         2.141425
 H        -3.387746        -0.948540         2.434787
 H        -1.408095         0.003881         2.001496
 H        -2.858525         1.191370        -0.269990
 H        -2.288857        -1.734287        -1.335783
 H        -0.871568        -0.709658        -1.954623
 H         0.883959        -2.535335         0.492266
 H        -0.734507         2.005384         0.367745
 H        -0.681488         1.472337        -1.279746
