19
Iteration:  1066charge 0 multiplicity 1
 C        -2.899011        -1.485739         1.521680
 C        -1.867425        -0.537447         1.128072
 C        -2.010551         0.430376        -0.139738
 C        -1.562344        -0.808692        -1.019846
 C        -0.716117        -1.119024         0.278281
 O        -0.098129        -2.399486         0.498000
 C         0.314772         0.059547         0.188451
 O         1.536266        -0.198376         0.104794
 C        -0.750039         1.230841         0.010812
 H        -3.197733        -2.284485         0.820516
 H        -2.463983        -2.265531         2.078039
 H        -3.453495        -1.050368         2.270212
 H        -1.571315         0.062863         2.000983
 H        -2.874441         0.925754        -0.498253
 H        -2.325522        -1.599077        -1.294196
 H        -0.982160        -0.632020        -1.991335
 H         0.844128        -2.452662         0.222584
 H        -0.657612         1.753878         0.978218
 H        -0.576815         1.982765        -0.706182
