19
Iteration:  1148charge 0 multiplicity 1
 C        -2.973541        -1.400945         1.578821
 C        -1.780103        -0.521198         1.189879
 C        -1.897458         0.306002        -0.057393
 C        -1.656526        -0.897180        -0.972362
 C        -0.672593        -1.187214         0.271899
 O        -0.123869        -2.442408         0.260839
 C         0.298689         0.017326         0.168329
 O         1.494362         0.028339         0.310938
 C        -0.665759         1.164401        -0.139161
 H        -3.396799        -1.653469         0.699069
 H        -2.538756        -2.152242         2.167295
 H        -3.847907        -0.894589         2.014407
 H        -1.292143         0.104907         1.970919
 H        -2.928431         0.688794        -0.194566
 H        -2.520186        -1.619332        -1.019857
 H        -1.267197        -0.659076        -1.925633
 H         0.883762        -2.439246         0.254583
 H        -0.705744         1.957155         0.612461
 H        -0.280845         1.630632        -1.067265
