19
Iteration:  4397charge 0 multiplicity 1
 C        -3.080592        -1.435168         1.403954
 C        -1.840403        -0.576332         1.194253
 C        -1.994596         0.348030        -0.152821
 C        -1.561251        -0.829810        -0.950880
 C        -0.575962        -1.162671         0.292829
 O         0.046055        -2.415320         0.664112
 C         0.247274         0.014470         0.164271
 O         1.447976        -0.125392         0.059271
 C        -0.685373         1.251307        -0.059840
 H        -3.519972        -1.582146         0.443822
 H        -2.732524        -2.302472         1.910508
 H        -3.920455        -1.069599         2.012449
 H        -1.657933         0.173771         2.038020
 H        -2.943563         0.868288        -0.376427
 H        -2.340575        -1.584107        -1.075671
 H        -1.160649        -0.539661        -2.044796
 H         0.934145        -2.126777         0.222204
 H        -0.626438         1.988267         0.718212
 H        -0.175951         1.615388        -0.976904
