19
Iteration:  4915charge 0 multiplicity 1
 C        -2.956347        -1.465900         1.542170
 C        -1.793387        -0.561826         1.203735
 C        -2.036012         0.398205        -0.140397
 C        -1.533604        -0.864591        -0.953256
 C        -0.666351        -1.152651         0.302014
 O        -0.105829        -2.397353         0.488918
 C         0.279101        -0.037518         0.133237
 O         1.501508        -0.033074         0.224222
 C        -0.706837         1.171105        -0.225286
 H        -3.058875        -2.123268         0.615734
 H        -2.800044        -2.143207         2.348085
 H        -3.819843        -0.806809         1.652525
 H        -1.328985         0.144812         1.994411
 H        -2.902635         0.950129        -0.368916
 H        -2.445451        -1.632976        -1.115342
 H        -0.918206        -0.678708        -1.802826
 H         0.890448        -2.136805         0.528894
 H        -0.557247         1.832090         0.649917
 H        -0.564985         1.750818        -1.116379
