19
Iteration:  2428
 C        -3.028949        -1.388298         1.531841
 C        -1.800202        -0.546955         1.104309
 C        -1.992501         0.415744        -0.055928
 C        -1.655843        -0.850571        -1.023771
 C        -0.649512        -1.243015         0.200713
 O        -0.009191        -2.428377         0.501911
 C         0.284768        -0.047802         0.117307
 O         1.488117        -0.051699         0.120837
 C        -0.625723         1.210504         0.044916
 H        -3.949228        -0.836853         1.494012
 H        -3.026750        -2.228799         0.805431
 H        -2.826553        -1.830083         2.530236
 H        -1.204368        -0.256955         1.948663
 H        -2.947545         0.951752        -0.213629
 H        -2.470191        -1.561382        -1.169901
 H        -1.471665        -0.573776        -2.039353
 H         0.955491        -2.193587         0.668232
 H        -0.842011         1.794809         0.928360
 H        -0.394715         1.930914        -0.812357
