19
Iteration:  4771charge 0 multiplicity 1
 C        -2.918550        -1.453659         1.524109
 C        -1.792398        -0.484632         1.154166
 C        -2.016138         0.422262        -0.103398
 C        -1.546315        -0.843479        -1.049083
 C        -0.611102        -1.255062         0.182556
 O        -0.135974        -2.462827         0.566359
 C         0.267982         0.012803         0.147968
 O         1.472526        -0.017644         0.310130
 C        -0.710869         1.203999        -0.255507
 H        -3.323220        -2.061062         0.790382
 H        -2.308540        -2.201974         2.140113
 H        -3.661670        -1.050747         2.272802
 H        -1.437390        -0.035896         2.063834
 H        -2.946095         1.037845        -0.301260
 H        -2.365908        -1.680511        -0.841054
 H        -1.138013        -0.653352        -1.954993
 H         0.783801        -2.438809         0.455217
 H        -0.664456         2.092657         0.502574
 H        -0.531155         1.567076        -1.219460
