19
Iteration:  3266
 C        -2.971105        -1.430650         1.497554
 C        -1.806817        -0.535135         1.107058
 C        -1.951384         0.376016        -0.191663
 C        -1.587553        -0.828518        -0.969983
 C        -0.633430        -1.225604         0.325511
 O        -0.084751        -2.450830         0.620313
 C         0.282516        -0.020470         0.161100
 O         1.506573         0.059253         0.132287
 C        -0.713870         1.161907        -0.149696
 H        -3.542945        -1.795212         0.642370
 H        -2.709993        -2.397615         2.060793
 H        -3.737581        -0.917793         2.120276
 H        -1.623106         0.082696         2.070305
 H        -2.945723         0.921451        -0.141598
 H        -2.394406        -1.550587        -1.057075
 H        -1.020210        -0.909535        -1.953229
 H         0.769015        -2.635996         0.218095
 H        -0.774408         1.821328         0.742208
 H        -0.320338         1.792881        -0.961268
