19
Iteration:  1762
 C        -2.957679        -1.398943         1.676544
 C        -1.861621        -0.554670         1.121350
 C        -1.982433         0.358481        -0.063175
 C        -1.709536        -0.816565        -0.901132
 C        -0.657241        -1.174968         0.157875
 O        -0.019981        -2.345100         0.157458
 C         0.302883        -0.051811         0.182585
 O         1.495230        -0.090313         0.493588
 C        -0.646712         1.118961        -0.264554
 H        -3.241708        -2.165483         1.064029
 H        -2.609932        -1.930657         2.586349
 H        -3.819862        -0.698080         1.801914
 H        -1.413215         0.068240         2.014685
 H        -2.812057         1.035273        -0.205883
 H        -2.425095        -1.678461        -0.867853
 H        -1.249290        -0.675150        -1.919133
 H         0.900313        -2.095304         0.489904
 H        -0.397730         2.071307         0.237165
 H        -0.521796         1.379063        -1.392763
