19
Iteration:  1250charge 0 multiplicity 1
 C        -3.019269        -1.511105         1.584077
 C        -1.739457        -0.573268         1.195989
 C        -1.974798         0.345393        -0.032662
 C        -1.686203        -0.753026        -0.947143
 C        -0.672045        -1.158297         0.164196
 O        -0.174608        -2.433900         0.289519
 C         0.358746        -0.039868         0.142691
 O         1.553484         0.089901         0.413802
 C        -0.648946         1.158742        -0.258278
 H        -3.169661        -2.034570         0.715931
 H        -2.717199        -2.365841         2.269225
 H        -3.804589        -0.863270         1.983578
 H        -1.078491         0.018112         1.892231
 H        -2.960771         0.784639         0.026142
 H        -2.408239        -1.526723        -1.123695
 H        -1.326020        -0.797783        -1.944765
 H         0.595620        -2.358945         0.951059
 H        -0.239247         2.007869         0.307589
 H        -0.505470         1.138187        -1.376245
