19
Iteration:  1981
 C        -2.954347        -1.550168         1.439221
 C        -1.875059        -0.587180         1.242361
 C        -1.933248         0.424032         0.106002
 C        -1.706878        -0.801100        -0.938529
 C        -0.651169        -1.180523         0.152433
 O        -0.092971        -2.398222         0.463940
 C         0.316531        -0.020867         0.030121
 O         1.514203         0.006586         0.198286
 C        -0.575902         1.158471        -0.172840
 H        -3.064055        -2.289983         0.654007
 H        -2.897431        -2.041427         2.451965
 H        -3.922106        -0.906357         1.531524
 H        -1.458957        -0.349997         2.214010
 H        -2.838846         1.099240        -0.003415
 H        -2.592123        -1.432283        -1.000065
 H        -1.407298        -0.341849        -1.932347
 H         0.557308        -2.251925         1.135137
 H        -0.231750         2.037126         0.401439
 H        -0.453786         1.543982        -1.216860
