19
Iteration:  4471
 C        -2.877063        -1.469821         1.563870
 C        -1.826408        -0.486972         1.083088
 C        -1.975380         0.340991        -0.183465
 C        -1.549760        -0.922313        -1.032611
 C        -0.646932        -1.165920         0.201390
 O        -0.235009        -2.430100         0.628001
 C         0.259329         0.008449         0.143815
 O         1.468359         0.013273         0.143750
 C        -0.624058         1.214906         0.002988
 H        -3.182368        -2.118612         0.547293
 H        -2.518543        -2.177370         2.337662
 H        -3.739660        -0.941284         2.023172
 H        -1.318525        -0.063164         1.937358
 H        -2.878729         0.866553        -0.420284
 H        -2.276157        -1.699233        -1.204087
 H        -0.961986        -0.643390        -1.967423
 H         0.770886        -2.275210         0.407975
 H        -0.546624         1.887149         0.849529
 H        -0.340878         1.717527        -1.064701
