19
Iteration:   674
 C        -2.865707        -1.482349         1.645626
 C        -1.745844        -0.471950         1.129932
 C        -1.980528         0.380802        -0.106594
 C        -1.661434        -0.829500        -0.975713
 C        -0.663272        -1.172974         0.140725
 O        -0.160649        -2.444371         0.324535
 C         0.280849         0.040805         0.172283
 O         1.465680        -0.062934         0.399395
 C        -0.653204         1.146858        -0.209342
 H        -3.353915        -1.960290         0.721985
 H        -2.332201        -2.277801         2.197072
 H        -3.608422        -1.059344         2.374864
 H        -1.249671        -0.038523         2.032861
 H        -2.921750         0.945053        -0.290709
 H        -2.565539        -1.507128        -1.041810
 H        -1.244244        -0.515624        -1.933895
 H         0.771842        -2.254069         0.554889
 H        -0.661639         1.993921         0.586826
 H        -0.382559         1.562256        -1.209116
