19
Iteration:   225charge 0 multiplicity 1
 C        -2.830564        -1.597414         1.574464
 C        -1.796076        -0.508901         1.075181
 C        -1.918841         0.446228        -0.156860
 C        -1.466880        -0.823854        -1.072394
 C        -0.687063        -1.094104         0.232361
 O        -0.222921        -2.386041         0.526413
 C         0.272977         0.013248         0.147153
 O         1.431505        -0.202404         0.076936
 C        -0.720625         1.273030         0.087174
 H        -3.585120        -2.052323         0.907800
 H        -2.311892        -2.524839         1.839108
 H        -3.341712        -1.167750         2.524241
 H        -1.617107         0.096718         1.969810
 H        -2.840771         1.043924        -0.347427
 H        -2.449818        -1.368794        -1.048856
 H        -0.900622        -0.863679        -2.083023
 H         0.640960        -2.113370         0.854096
 H        -0.787339         2.025214         0.966722
 H        -0.516613         1.950903        -0.749862
