19
Iteration:  1700charge 0 multiplicity 1
 C        -2.866373        -1.524705         1.666541
 C        -1.817260        -0.540366         1.108794
 C        -2.015749         0.387049        -0.180682
 C        -1.695203        -0.791598        -1.067044
 C        -0.649383        -1.160325         0.124458
 O        -0.225462        -2.436696         0.486721
 C         0.372281         0.019333         0.126605
 O         1.568115        -0.032842         0.287745
 C        -0.640863         1.200210        -0.050674
 H        -2.962112        -2.286589         0.746907
 H        -2.615152        -2.093718         2.540063
 H        -3.853210        -1.030424         1.994239
 H        -1.425522         0.041271         1.907593
 H        -2.974711         0.961091        -0.225147
 H        -2.400044        -1.612476        -1.096182
 H        -1.315504        -0.597662        -2.044766
 H         0.800442        -2.478262         0.389794
 H        -0.591083         1.944701         0.800663
 H        -0.529439         1.704310        -1.001140
