19
Iteration:  4882charge 0 multiplicity 1
 C        -2.972661        -1.339933         1.606892
 C        -1.781167        -0.547757         1.093796
 C        -2.012956         0.400214        -0.108825
 C        -1.620589        -0.984750        -0.971796
 C        -0.668865        -1.249830         0.134549
 O        -0.034686        -2.477524         0.404541
 C         0.327033         0.004842         0.194410
 O         1.528694         0.047676         0.351848
 C        -0.730513         1.215365        -0.190593
 H        -3.285675        -1.983980         0.691457
 H        -2.793028        -1.988833         2.457128
 H        -3.868240        -0.728471         1.877939
 H        -1.325883         0.119871         1.994539
 H        -2.899091         0.996832        -0.201329
 H        -2.688504        -1.680886        -1.040189
 H        -1.278693        -1.028541        -2.009715
 H         0.833589        -2.350764         0.700190
 H        -0.583767         1.970279         0.630815
 H        -0.625880         1.686409        -1.164520
