19
Iteration:  4796charge 0 multiplicity 1
 C        -2.832126        -1.482944         1.574294
 C        -1.758064        -0.508577         1.122104
 C        -2.015090         0.390226        -0.228845
 C        -1.740583        -0.932876        -1.006901
 C        -0.707659        -1.215173         0.198876
 O        -0.163004        -2.332091         0.483007
 C         0.298674        -0.040762         0.033024
 O         1.475723         0.018945         0.433924
 C        -0.578776         1.165664        -0.134205
 H        -3.267278        -2.060066         0.665756
 H        -2.359641        -2.322375         2.062232
 H        -3.518525        -1.034293         2.291460
 H        -1.409596         0.066043         1.922630
 H        -2.850217         0.995389        -0.441911
 H        -2.488545        -1.734525        -0.838659
 H        -1.192840        -0.716461        -1.917960
 H         0.793667        -2.078193         0.763073
 H        -0.492669         2.094068         0.504067
 H        -0.354401         1.410680        -1.238465
