19
Iteration:  3272
 C        -2.967164        -1.461091         1.492056
 C        -1.807438        -0.519809         1.170572
 C        -2.011727         0.367594        -0.239404
 C        -1.566522        -0.876156        -0.983717
 C        -0.636092        -1.198322         0.326622
 O        -0.110629        -2.424886         0.629720
 C         0.318787        -0.025874         0.236570
 O         1.506792         0.025071         0.087554
 C        -0.695814         1.225989        -0.152141
 H        -3.640426        -1.809330         0.633585
 H        -2.526521        -2.372413         1.823521
 H        -3.759596        -1.046817         2.122331
 H        -1.665356         0.155433         1.990710
 H        -2.906612         0.959378        -0.176238
 H        -2.313982        -1.686809        -0.988409
 H        -1.019734        -0.720995        -1.902739
 H         0.743905        -2.639658         0.096800
 H        -0.666652         1.710384         0.845371
 H        -0.324168         1.817042        -0.985501
