19
Iteration:  1789charge 0 multiplicity 1
 C        -2.897463        -1.299477         1.788293
 C        -1.801503        -0.477696         1.130531
 C        -1.938546         0.342242        -0.181009
 C        -1.639526        -0.951989        -1.102248
 C        -0.675239        -1.269665         0.064606
 O        -0.058153        -2.506202         0.208474
 C         0.232891        -0.024075         0.225058
 O         1.453781        -0.031408         0.434687
 C        -0.707064         1.275000        -0.059863
 H        -3.373479        -2.007502         0.955634
 H        -2.487865        -1.974568         2.551177
 H        -3.564641        -0.543808         2.178224
 H        -1.349598         0.040250         1.923021
 H        -2.832409         0.982760        -0.323521
 H        -2.419138        -1.680810        -1.219496
 H        -1.041322        -0.811113        -1.979798
 H         0.863675        -2.228268         0.335914
 H        -0.715488         1.871023         0.870515
 H        -0.429689         1.928298        -0.832295
