19
Iteration:  2694charge 0 multiplicity 1
 C        -2.863171        -1.448360         1.460908
 C        -1.825537        -0.478108         1.120622
 C        -1.957870         0.319882        -0.228535
 C        -1.587234        -0.966158        -1.030550
 C        -0.652501        -1.161146         0.291121
 O        -0.124227        -2.393893         0.647404
 C         0.248134         0.027518         0.089875
 O         1.432824        -0.055182         0.222892
 C        -0.686117         1.258399        -0.083944
 H        -3.540103        -1.601776         0.515368
 H        -2.368448        -2.361642         1.641795
 H        -3.456587        -1.180581         2.309339
 H        -1.349960         0.120566         2.008972
 H        -2.876375         0.897682        -0.393997
 H        -2.303873        -1.742212        -0.838419
 H        -1.233333        -0.932743        -2.059431
 H         0.881052        -2.102322         0.624279
 H        -0.650114         1.750412         0.930068
 H        -0.288028         1.827742        -0.954156
