19
Iteration:   649
 C        -2.979044        -1.405702         1.569383
 C        -1.792542        -0.431316         1.198766
 C        -1.994232         0.442420        -0.075881
 C        -1.734655        -0.947483        -0.845579
 C        -0.628907        -1.259350         0.254244
 O        -0.015215        -2.425569         0.170570
 C         0.279444        -0.020428         0.070768
 O         1.460571        -0.017888         0.431268
 C        -0.610104         1.147993        -0.211420
 H        -3.397523        -1.662627         0.617691
 H        -2.645849        -2.341700         2.011710
 H        -3.752496        -0.982758         2.260498
 H        -1.402359         0.004444         2.104780
 H        -2.893510         1.020847        -0.252773
 H        -2.622266        -1.499563        -0.813114
 H        -1.182569        -0.893548        -1.809547
 H         0.943075        -2.249412         0.590386
 H        -0.356446         1.999011         0.490814
 H        -0.429100         1.499777        -1.216120
