19
Iteration:  2383charge 0 multiplicity 1
 C        -2.878235        -1.539923         1.629350
 C        -1.801216        -0.482614         1.184140
 C        -2.008195         0.430606        -0.121797
 C        -1.607432        -0.775302        -0.967250
 C        -0.728462        -1.121686         0.203879
 O        -0.107051        -2.429338         0.294046
 C         0.268148        -0.014781         0.214794
 O         1.468577        -0.158437         0.297754
 C        -0.650972         1.246548        -0.149585
 H        -3.806356        -1.414915         1.080108
 H        -2.321868        -2.564258         1.502121
 H        -3.000842        -1.377157         2.743479
 H        -1.544374         0.146263         2.023211
 H        -3.026704         0.802040        -0.178469
 H        -2.338680        -1.549076        -1.211578
 H        -1.088744        -0.754327        -1.937686
 H         0.774607        -2.227893         0.474975
 H        -0.417675         2.088382         0.487288
 H        -0.277358         1.453840        -1.236013
