19
Iteration:  4087
 C        -2.966774        -1.498610         1.519159
 C        -1.798436        -0.515524         1.176450
 C        -1.932245         0.406935        -0.147490
 C        -1.572263        -0.870883        -1.007691
 C        -0.665524        -1.185841         0.287690
 O        -0.161900        -2.550444         0.532578
 C         0.300391         0.059148         0.106136
 O         1.509644         0.059566         0.250800
 C        -0.667372         1.202254        -0.139201
 H        -3.239053        -2.272203         0.746540
 H        -2.635701        -2.068484         2.428017
 H        -3.906890        -0.930789         1.570348
 H        -1.627725         0.121957         2.054161
 H        -2.777933         1.123953        -0.336951
 H        -2.371746        -1.593747        -1.044658
 H        -1.138937        -0.705264        -2.088850
 H         0.788966        -2.494774         0.236121
 H        -0.678038         1.928298         0.629792
 H        -0.483131         1.688111        -1.122981
