19
Iteration:  1451charge 0 multiplicity 1
 C        -2.994866        -1.336642         1.701274
 C        -1.776412        -0.523956         1.108222
 C        -1.958022         0.408430        -0.148707
 C        -1.649336        -0.923381        -0.996125
 C        -0.633654        -1.192679         0.091420
 O         0.019427        -2.407895         0.272629
 C         0.267448        -0.001948         0.102866
 O         1.426343        -0.129330         0.428833
 C        -0.700569         1.174522        -0.057631
 H        -3.645023        -1.932999         0.879704
 H        -2.546244        -1.946966         2.470719
 H        -3.662103        -0.577765         2.070702
 H        -1.265966         0.117403         1.894529
 H        -2.996433         0.690086        -0.249893
 H        -2.542744        -1.581395        -0.936909
 H        -1.255349        -0.802910        -2.043237
 H         1.024211        -2.158442         0.422011
 H        -0.532502         1.921846         0.772994
 H        -0.497801         1.722031        -0.983464
