19
Iteration:  1564charge 0 multiplicity 1
 C        -2.909949        -1.488588         1.676978
 C        -1.857864        -0.538827         1.095095
 C        -1.913005         0.399755        -0.167163
 C        -1.463133        -0.875269        -1.059463
 C        -0.755447        -1.173025         0.234269
 O        -0.174404        -2.433860         0.362866
 C         0.294993         0.039369         0.165601
 O         1.509159        -0.052364         0.189436
 C        -0.688300         1.230012        -0.002973
 H        -3.504197        -1.939771         0.891800
 H        -2.485524        -2.386749         2.387762
 H        -3.782844        -0.863204         2.257067
 H        -1.470597         0.007890         2.002348
 H        -2.884316         0.821617        -0.476518
 H        -2.304865        -1.608201        -1.084632
 H        -0.888589        -0.685015        -2.025847
 H         0.537026        -2.198366         1.014921
 H        -0.716340         1.749399         0.921905
 H        -0.477186         1.873865        -0.904445
