19
Iteration:  3844charge 0 multiplicity 1
 C        -3.056604        -1.508775         1.374775
 C        -1.792349        -0.523219         1.164075
 C        -1.948712         0.421942        -0.191195
 C        -1.614941        -0.915932        -0.954430
 C        -0.671456        -1.175166         0.286695
 O        -0.084621        -2.443855         0.675717
 C         0.306578         0.004451         0.137868
 O         1.496627         0.037107         0.088245
 C        -0.612833         1.182368        -0.107069
 H        -3.352082        -1.962678         0.516238
 H        -2.903793        -2.214765         2.210202
 H        -3.804368        -0.926988         1.897936
 H        -1.400330        -0.073427         2.032980
 H        -2.916999         1.044762        -0.132965
 H        -2.504029        -1.668628        -1.016202
 H        -1.037208        -0.938974        -1.926266
 H         0.833657        -2.074381         0.771321
 H        -0.636064         1.754530         0.910293
 H        -0.319295         1.854509        -0.878883
