19
Iteration:  1102charge 0 multiplicity 1
 C        -3.045119        -1.424356         1.527737
 C        -1.809885        -0.710291         1.247717
 C        -1.947802         0.394180        -0.066144
 C        -1.611592        -0.800338        -1.016743
 C        -0.750233        -1.237553         0.228345
 O        -0.017069        -2.411269         0.433896
 C         0.272002         0.036876         0.137663
 O         1.500198        -0.010504         0.145183
 C        -0.597562         1.157263        -0.073750
 H        -3.622910        -1.577230         0.602338
 H        -2.589307        -2.067481         2.218469
 H        -3.857479        -0.818457         1.935416
 H        -1.339397        -0.252425         2.179580
 H        -2.891765         0.970108        -0.225075
 H        -2.400805        -1.506763        -1.195545
 H        -1.016194        -0.497217        -1.976807
 H         0.874578        -1.992019         0.735820
 H        -0.464595         1.883383         0.758862
 H        -0.671496         1.723339        -0.979932
