19
Iteration:  4101
 C        -2.904041        -1.483507         1.427575
 C        -1.883432        -0.452153         1.091121
 C        -1.993354         0.404162        -0.111875
 C        -1.546370        -0.906987        -0.965527
 C        -0.626199        -1.171256         0.217638
 O        -0.200759        -2.400173         0.581839
 C         0.303009        -0.027454         0.110881
 O         1.512040         0.006418         0.155746
 C        -0.668248         1.160006        -0.008639
 H        -2.877641        -2.348094         0.635082
 H        -2.596483        -1.977782         2.351350
 H        -3.926494        -1.083165         1.749992
 H        -1.367519        -0.033402         1.961851
 H        -2.930548         0.851215        -0.278933
 H        -2.367847        -1.633289        -1.069274
 H        -1.004490        -0.833896        -1.886182
 H         0.762241        -2.466659         0.747500
 H        -0.534209         1.774850         0.929891
 H        -0.452871         1.895382        -0.939149
