19
Iteration:   319charge 0 multiplicity 1
 C        -2.946385        -1.338207         1.611317
 C        -1.740125        -0.521886         1.154901
 C        -2.024510         0.336050        -0.157433
 C        -1.606678        -0.837841        -1.019233
 C        -0.623496        -1.260240         0.168407
 O        -0.120494        -2.495452         0.349521
 C         0.279811         0.012400         0.113669
 O         1.455168         0.030736         0.338197
 C        -0.653602         1.167037        -0.046392
 H        -3.314628        -2.031623         0.854483
 H        -2.807869        -2.093409         2.408303
 H        -3.758416        -0.733303         1.942287
 H        -1.394605         0.090270         2.024772
 H        -3.041896         0.838546        -0.308947
 H        -2.354607        -1.725596        -1.073751
 H        -1.282651        -0.610191        -1.986410
 H         0.913718        -2.397186         0.251559
 H        -0.522842         1.645476         0.905115
 H        -0.146847         1.877399        -0.787088
