19
Iteration:   207
 C        -2.802282        -1.604340         1.651581
 C        -1.951140        -0.515390         1.108549
 C        -2.022465         0.448612        -0.181878
 C        -1.506441        -0.770962        -1.064158
 C        -0.744567        -1.156496         0.254828
 O        -0.220828        -2.416500         0.522184
 C         0.275074        -0.004641         0.199707
 O         1.456411        -0.085672         0.109901
 C        -0.568455         1.222608        -0.032221
 H        -3.406929        -2.075618         0.862411
 H        -2.103985        -2.377538         1.957085
 H        -3.373378        -1.250592         2.470479
 H        -1.423677         0.016351         1.897516
 H        -2.844878         0.964228        -0.574673
 H        -2.127432        -1.483893        -1.468995
 H        -0.940624        -0.311033        -1.822575
 H         0.731662        -2.490716         0.301975
 H        -0.503917         1.811132         0.898033
 H        -0.081539         1.912895        -0.732566
