19
Iteration:  1227charge 0 multiplicity 1
 C        -2.757674        -1.519803         1.527488
 C        -1.821157        -0.451274         1.141812
 C        -1.935611         0.418774        -0.117373
 C        -1.723630        -0.827916        -0.954501
 C        -0.673451        -1.142897         0.182107
 O        -0.143707        -2.480779         0.313118
 C         0.258005         0.044504         0.123436
 O         1.404043        -0.081648         0.468425
 C        -0.629661         1.203708        -0.207921
 H        -3.124845        -2.211938         0.897274
 H        -2.194209        -2.139834         2.276181
 H        -3.378060        -0.904533         2.175972
 H        -1.399340         0.049925         2.071524
 H        -2.833478         0.994805        -0.270432
 H        -2.505093        -1.577210        -1.037678
 H        -1.303500        -0.956526        -1.897650
 H         0.735017        -2.311923         0.641368
 H        -0.571372         1.862558         0.654174
 H        -0.334779         1.606753        -1.218403
