19
Iteration:  2551
 C        -2.926451        -1.513165         1.563393
 C        -1.813629        -0.483829         1.131831
 C        -1.929939         0.383550        -0.130596
 C        -1.626150        -0.839966        -1.038329
 C        -0.676120        -1.223313         0.253473
 O        -0.091368        -2.364096         0.481960
 C         0.256512         0.016893         0.138221
 O         1.471374        -0.105885         0.296417
 C        -0.672857         1.207307        -0.162289
 H        -2.452757        -2.309570         2.261276
 H        -3.613267        -0.943541         2.062875
 H        -3.418136        -1.940825         0.733408
 H        -1.460471         0.063143         2.042067
 H        -2.945816         0.854034        -0.173456
 H        -2.487882        -1.510078        -1.205379
 H        -1.103259        -0.506987        -1.895026
 H         0.817298        -2.159289         0.413221
 H        -0.497152         2.047369         0.568386
 H        -0.391174         1.466908        -1.187555
