19
Iteration:  1025
 C        -2.868024        -1.609750         1.473328
 C        -1.793089        -0.562272         1.135227
 C        -1.972004         0.484026        -0.045349
 C        -1.648975        -0.777653        -0.972646
 C        -0.708650        -1.205214         0.251580
 O        -0.217126        -2.485867         0.502613
 C         0.311146        -0.003068         0.148293
 O         1.544527         0.033052         0.166410
 C        -0.654284         1.187872        -0.146227
 H        -3.102806        -2.240354         0.523520
 H        -2.464718        -2.127450         2.358942
 H        -3.669326        -0.924352         1.918347
 H        -1.374728        -0.171933         2.119276
 H        -2.871463         1.116087        -0.076178
 H        -2.538044        -1.345303        -1.196440
 H        -0.974449        -0.510150        -1.848744
 H         0.617576        -2.364157         1.027159
 H        -0.535480         2.081706         0.564075
 H        -0.456616         1.674227        -1.088941
