19
Iteration:  4147charge 0 multiplicity 1
 C        -3.002159        -1.590621         1.396140
 C        -1.916615        -0.542937         1.103838
 C        -2.014332         0.396771        -0.088372
 C        -1.414058        -0.751811        -0.956019
 C        -0.725998        -1.168289         0.350777
 O        -0.077209        -2.367257         0.700327
 C         0.261486        -0.013189         0.111696
 O         1.488582        -0.124937        -0.003360
 C        -0.621394         1.243520        -0.044286
 H        -3.232637        -2.311781         0.580409
 H        -2.693967        -2.260199         2.236020
 H        -3.884017        -1.103746         1.940509
 H        -1.728336         0.046584         2.076344
 H        -2.922709         0.903612        -0.457958
 H        -2.200985        -1.480849        -1.169721
 H        -0.878055        -0.517454        -1.809403
 H         0.802122        -2.013893         0.387080
 H        -0.444677         2.097059         0.772631
 H        -0.337743         1.744988        -1.050789
