19
Iteration:  1886
 C        -2.895445        -1.510282         1.498174
 C        -1.828155        -0.562560         1.143153
 C        -2.009352         0.432447        -0.006667
 C        -1.607707        -0.791742        -1.062932
 C        -0.680066        -1.162580         0.232795
 O        -0.075971        -2.355340         0.555254
 C         0.286804        -0.004880         0.119081
 O         1.502138        -0.176884         0.148988
 C        -0.680071         1.192064        -0.068943
 H        -3.422872        -1.721386         0.461102
 H        -2.610355        -2.387519         1.963953
 H        -3.539994        -0.900346         2.119875
 H        -1.616731        -0.075641         2.159185
 H        -2.932682         1.061315        -0.184185
 H        -2.377919        -1.515294        -1.250413
 H        -1.045618        -0.483323        -1.943719
 H         0.890896        -2.232469         0.725156
 H        -0.675264         2.133609         0.603440
 H        -0.652649         1.634136        -1.036975
