19
Iteration:  4412charge 0 multiplicity 1
 C        -3.060204        -1.551818         1.374505
 C        -1.897053        -0.548995         1.128960
 C        -1.928448         0.423781        -0.078641
 C        -1.542462        -0.837098        -0.951821
 C        -0.699076        -1.156415         0.420853
 O        -0.009938        -2.312787         0.638375
 C         0.288873         0.018285         0.187702
 O         1.496573        -0.100058         0.009963
 C        -0.629563         1.171651        -0.130835
 H        -3.762238        -1.823971         0.534393
 H        -2.699863        -2.518886         1.944331
 H        -3.805002        -0.966924         2.009251
 H        -1.609269        -0.276398         2.154078
 H        -2.845775         1.026286        -0.314735
 H        -2.329052        -1.573785        -1.060226
 H        -0.987679        -0.755154        -1.810181
 H         0.882388        -2.287369         0.324516
 H        -0.568913         2.036610         0.646040
 H        -0.574835         1.628492        -1.067371
