19
Iteration:  4477charge 0 multiplicity 1
 C        -2.903452        -1.488719         1.596674
 C        -1.831451        -0.524018         1.148428
 C        -1.906608         0.347167        -0.206598
 C        -1.536918        -0.912624        -1.081844
 C        -0.671534        -1.132012         0.218494
 O        -0.215026        -2.408531         0.583181
 C         0.274354         0.017765         0.141518
 O         1.470368         0.013518         0.185454
 C        -0.665900         1.178395        -0.065723
 H        -3.218186        -2.141161         0.882625
 H        -2.654463        -2.222451         2.394477
 H        -3.683145        -0.835249         2.000982
 H        -1.368405         0.114293         1.961043
 H        -2.777196         0.984402        -0.500319
 H        -2.333613        -1.703265        -1.184592
 H        -1.080135        -0.689969        -2.029029
 H         0.688045        -2.406810         0.315553
 H        -0.474695         1.780678         0.868496
 H        -0.425139         1.723808        -0.878129
