19
Iteration:  2923charge 0 multiplicity 1
 C        -2.909070        -1.364083         1.565502
 C        -1.720899        -0.450709         1.139157
 C        -1.992191         0.290090        -0.286996
 C        -1.636224        -1.025570        -1.001548
 C        -0.683465        -1.161655         0.312463
 O        -0.004106        -2.408830         0.448409
 C         0.215878         0.087717         0.194848
 O         1.378233        -0.056574         0.513043
 C        -0.679553         1.176096        -0.315916
 H        -3.423599        -0.998035         2.551469
 H        -3.645568        -1.610382         0.870932
 H        -2.371929        -2.291592         1.737367
 H        -1.446788         0.257606         1.899738
 H        -2.852444         0.881416        -0.598610
 H        -2.392226        -1.817697        -1.134899
 H        -1.091665        -0.819242        -1.953159
 H         0.959505        -2.234557         0.176263
 H        -0.623663         2.132748         0.259457
 H        -0.369644         1.435709        -1.328871
