19
Iteration:   390
 C        -2.753871        -1.527816         1.529751
 C        -1.756267        -0.433835         1.155009
 C        -2.015678         0.466045        -0.098972
 C        -1.659228        -0.821013        -0.968548
 C        -0.677920        -1.176227         0.142813
 O        -0.220182        -2.491881         0.427676
 C         0.230339        -0.017456         0.196515
 O         1.432918        -0.001436         0.432093
 C        -0.577429         1.202237        -0.256308
 H        -3.111325        -2.144195         0.682846
 H        -2.358183        -2.400242         2.038008
 H        -3.665105        -1.214271         2.096585
 H        -1.189977         0.004566         2.012716
 H        -2.994857         0.840123        -0.188317
 H        -2.499848        -1.466313        -0.982109
 H        -1.221263        -0.743664        -2.089785
 H         0.728809        -2.672819         0.190385
 H        -0.456633         2.058137         0.460360
 H        -0.257086         1.448904        -1.232175
