19
Iteration:  2536
 C        -2.853121        -1.483663         1.473227
 C        -1.778862        -0.535882         1.114734
 C        -2.069077         0.439137        -0.148904
 C        -1.668148        -0.835414        -0.984106
 C        -0.692341        -1.101309         0.168004
 O        -0.065821        -2.364529         0.572659
 C         0.279383        -0.002937         0.128419
 O         1.472680        -0.173247         0.249866
 C        -0.634762         1.179002        -0.097752
 H        -2.582023        -2.071157         2.297243
 H        -3.898918        -1.070153         1.817915
 H        -3.063814        -2.292628         0.704112
 H        -1.382826         0.041511         2.042308
 H        -2.864196         1.145944        -0.398862
 H        -2.447196        -1.607279        -0.799015
 H        -1.235191        -0.826082        -2.029205
 H         0.957965        -2.247732         0.604076
 H        -0.675055         1.782347         0.783354
 H        -0.450468         1.954409        -0.886487
