19
Iteration:  1026
 C        -2.862278        -1.612039         1.469796
 C        -1.792905        -0.561230         1.136483
 C        -1.970734         0.480475        -0.043144
 C        -1.649560        -0.785076        -0.981212
 C        -0.698767        -1.198405         0.250835
 O        -0.221227        -2.485701         0.502654
 C         0.303494         0.006345         0.153739
 O         1.540180         0.028256         0.161977
 C        -0.653750         1.184155        -0.141307
 H        -3.125764        -2.232130         0.526000
 H        -2.418671        -2.108202         2.377609
 H        -3.707962        -0.923029         1.929909
 H        -1.406150        -0.187209         2.133044
 H        -2.865932         1.153374        -0.117374
 H        -2.540510        -1.330129        -1.187319
 H        -0.974021        -0.521391        -1.835854
 H         0.629808        -2.336327         1.040850
 H        -0.497409         2.056661         0.598050
 H        -0.441125         1.686807        -1.105899
