19
Iteration:  4438
 C        -2.983925        -1.585689         1.431088
 C        -1.859033        -0.506288         1.165239
 C        -1.995755         0.355015        -0.107553
 C        -1.566450        -0.811091        -0.955875
 C        -0.622178        -1.123686         0.358697
 O        -0.164874        -2.374532         0.672537
 C         0.322652         0.036029         0.062385
 O         1.520336        -0.077526         0.030915
 C        -0.604988         1.215576        -0.070916
 H        -3.471089        -1.776416         0.336292
 H        -2.582165        -2.472293         1.919879
 H        -3.939256        -1.266434         1.813395
 H        -1.541320        -0.153751         2.142619
 H        -2.848261         0.906207        -0.418183
 H        -2.216284        -1.682818        -1.142413
 H        -1.030728        -0.543426        -1.929235
 H         0.735790        -2.403630         1.015841
 H        -0.598309         1.983391         0.683226
 H        -0.612272         1.799893        -1.129946
