19
Iteration:   259charge 0 multiplicity 1
 C        -3.047336        -1.491866         1.382184
 C        -1.827939        -0.547694         1.203381
 C        -1.959826         0.415946         0.053082
 C        -1.618775        -0.833055        -0.931851
 C        -0.690906        -1.196196         0.276823
 O        -0.051667        -2.401034         0.481138
 C         0.294333        -0.032152         0.046140
 O         1.520741        -0.006504         0.127494
 C        -0.613958         1.130584        -0.054831
 H        -3.689351        -1.667607         0.508010
 H        -2.670978        -2.382958         1.865616
 H        -3.665444        -0.967117         2.164355
 H        -1.565560         0.064811         2.053382
 H        -2.855752         0.964988        -0.106091
 H        -2.499588        -1.375256        -1.066556
 H        -1.189097        -0.613952        -1.941934
 H         0.895129        -2.249131         0.492156
 H        -0.377917         1.914822         0.748092
 H        -0.444951         1.595772        -1.015086
