19
Iteration:  1977charge 0 multiplicity 1
 C        -2.976097        -1.499948         1.412553
 C        -1.895426        -0.611096         1.287831
 C        -1.975233         0.456820         0.110530
 C        -1.672316        -0.837507        -0.945555
 C        -0.628832        -1.173223         0.157893
 O        -0.107183        -2.408305         0.445921
 C         0.309575        -0.037423         0.026943
 O         1.535421         0.013403         0.179784
 C        -0.571781         1.192334        -0.165924
 H        -3.083818        -2.302242         0.702555
 H        -2.875703        -2.027616         2.455716
 H        -3.906146        -0.978592         1.573899
 H        -1.345904        -0.410819         2.307103
 H        -2.944907         0.927339         0.071102
 H        -2.525658        -1.525501        -1.074955
 H        -1.269375        -0.435617        -1.866967
 H         0.590127        -2.204246         1.142678
 H        -0.261768         2.001154         0.443740
 H        -0.439146         1.510982        -1.243665
