19
Iteration:  4892
 C        -2.978076        -1.364068         1.514363
 C        -1.770776        -0.503365         1.137890
 C        -1.940018         0.321216        -0.091998
 C        -1.647519        -0.983719        -0.984381
 C        -0.615954        -1.187593         0.210208
 O        -0.082218        -2.458459         0.408513
 C         0.265303         0.003544         0.144867
 O         1.477047         0.037190         0.309093
 C        -0.679435         1.203248        -0.140811
 H        -3.295466        -2.128051         0.771682
 H        -2.641190        -1.948458         2.373866
 H        -3.791717        -0.658240         1.789820
 H        -1.301804         0.131948         2.040626
 H        -2.902502         0.867444        -0.163619
 H        -2.498713        -1.827903        -0.812201
 H        -1.225390        -0.850445        -1.932775
 H         0.803777        -2.231668         0.649416
 H        -0.738573         2.075204         0.563503
 H        -0.460380         1.551796        -1.106180
