19
Iteration:  2085
 C        -2.918027        -1.403816         1.640879
 C        -1.662030        -0.554636         1.168782
 C        -2.002343         0.347394        -0.063208
 C        -1.679732        -0.860626        -0.954934
 C        -0.691478        -1.187772         0.140580
 O        -0.160118        -2.469218         0.229608
 C         0.300154        -0.019499         0.116167
 O         1.491661         0.098012         0.340134
 C        -0.601851         1.126499        -0.127320
 H        -3.598715        -1.402589         0.812899
 H        -2.773924        -2.505823         2.009883
 H        -3.434402        -0.804335         2.349422
 H        -1.268514        -0.088936         2.044330
 H        -2.921232         0.905241        -0.180034
 H        -2.366787        -1.692841        -1.147349
 H        -1.114644        -0.681585        -1.867282
 H         0.308245        -2.609556         1.118213
 H        -0.536347         1.747745         0.831013
 H        -0.665769         1.816779        -1.008587
