19
Iteration:  3393charge 0 multiplicity 1
 C        -3.033406        -1.313336         1.576663
 C        -1.830036        -0.562396         1.108867
 C        -2.065065         0.350470        -0.197144
 C        -1.542351        -0.886308        -0.946610
 C        -0.597312        -1.207650         0.260199
 O         0.007811        -2.431236         0.414366
 C         0.249323        -0.023151         0.190057
 O         1.458171         0.033670         0.253005
 C        -0.657822         1.095370        -0.129618
 H        -3.718781        -1.840659         0.756811
 H        -2.754833        -2.155726         2.285527
 H        -3.691689        -0.613340         2.171935
 H        -1.656745         0.097915         1.926863
 H        -3.020507         0.920197        -0.358262
 H        -2.166416        -1.725577        -1.101180
 H        -0.929513        -0.662121        -1.817562
 H         0.924267        -2.369659         0.766443
 H        -0.446968         1.938523         0.615406
 H        -0.407102         1.447971        -1.135703
