19
Iteration:   684
 C        -2.779925        -1.494439         1.687705
 C        -1.731764        -0.599839         1.125955
 C        -2.009980         0.434395        -0.167471
 C        -1.645309        -0.756129        -1.061692
 C        -0.658337        -1.204091         0.104602
 O        -0.201632        -2.426420         0.424320
 C         0.277298        -0.002936         0.133663
 O         1.488807        -0.074947         0.394121
 C        -0.718175         1.241404        -0.116413
 H        -3.424775        -1.972766         0.821656
 H        -2.366578        -2.319285         2.275043
 H        -3.592179        -0.893747         2.219524
 H        -1.269418         0.014819         1.934481
 H        -2.967306         1.003776        -0.291044
 H        -2.471302        -1.498590        -1.268477
 H        -1.204079        -0.817858        -2.057801
 H         0.789203        -2.476039         0.578096
 H        -0.539557         2.228050         0.528569
 H        -0.492098         1.446280        -1.168086
