19
Iteration:  1248charge 0 multiplicity 1
 C        -2.992867        -1.523097         1.591812
 C        -1.742601        -0.565629         1.194065
 C        -1.982983         0.367694        -0.046400
 C        -1.689321        -0.775639        -0.944719
 C        -0.675476        -1.163634         0.153023
 O        -0.169044        -2.438806         0.292174
 C         0.361947        -0.037013         0.149536
 O         1.550313         0.074094         0.422785
 C        -0.646869         1.173614        -0.254770
 H        -3.209539        -2.003567         0.694852
 H        -2.640794        -2.327449         2.250477
 H        -3.908632        -0.917451         1.961724
 H        -1.082493         0.060067         1.925781
 H        -2.947611         0.855805        -0.013718
 H        -2.472525        -1.536463        -1.120004
 H        -1.395103        -0.735634        -1.962211
 H         0.625637        -2.385778         0.972011
 H        -0.267123         2.042139         0.260089
 H        -0.518339         1.186737        -1.377356
