19
Iteration:  3104
 C        -2.977908        -1.517476         1.574387
 C        -1.859847        -0.460846         1.166500
 C        -1.940536         0.313619        -0.273612
 C        -1.639654        -0.975593        -0.892488
 C        -0.666381        -1.156471         0.210724
 O        -0.142951        -2.428123         0.429914
 C         0.328745         0.061445         0.241047
 O         1.564306         0.103823         0.340235
 C        -0.626103         1.167747        -0.216979
 H        -3.831001        -1.463501         0.799944
 H        -2.555283        -2.590549         1.872686
 H        -3.566475        -1.329858         2.498956
 H        -1.502572         0.207481         1.947632
 H        -2.887535         0.814710        -0.617901
 H        -2.521992        -1.563236        -0.843932
 H        -1.429754        -1.041955        -1.973036
 H         0.784921        -2.389178         0.336807
 H        -0.439286         2.093176         0.437859
 H        -0.342822         1.382599        -1.350587
