19
Iteration:  1279charge 0 multiplicity 1
 C        -3.026456        -1.336570         1.518057
 C        -1.740404        -0.571499         1.160532
 C        -1.938128         0.365150        -0.066707
 C        -1.601389        -0.889293        -0.922521
 C        -0.625681        -1.265210         0.219197
 O        -0.106741        -2.596036         0.305870
 C         0.283217         0.036139         0.147730
 O         1.490120         0.081120         0.279393
 C        -0.722279         1.282290        -0.079755
 H        -3.295361        -1.924856         0.635458
 H        -2.826440        -2.082308         2.278834
 H        -3.784623        -0.613011         1.990938
 H        -1.217516        -0.098659         2.023656
 H        -2.934586         0.832094        -0.131976
 H        -2.404020        -1.705992        -1.030890
 H        -1.047126        -0.696708        -1.885659
 H         0.808912        -2.515862         0.520685
 H        -0.566059         1.977964         0.726552
 H        -0.548050         1.725597        -1.073825
