19
Iteration:  1381
 C        -2.961021        -1.570935         1.447396
 C        -1.775142        -0.523359         1.190395
 C        -1.968476         0.391455        -0.134171
 C        -1.650428        -0.845265        -0.942650
 C        -0.653959        -1.164894         0.264340
 O        -0.242156        -2.460640         0.549098
 C         0.367333         0.046050         0.070238
 O         1.571318        -0.004156         0.124625
 C        -0.636132         1.230415        -0.042212
 H        -3.427483        -1.957314         0.497120
 H        -2.546229        -2.421294         2.071830
 H        -3.907489        -1.120074         1.941059
 H        -1.336878         0.082122         2.057804
 H        -2.856655         1.044093        -0.229753
 H        -2.490525        -1.531981        -0.854912
 H        -1.213522        -0.734779        -1.944653
 H         0.729526        -2.439083         0.612803
 H        -0.761232         1.941476         0.811509
 H        -0.255482         1.925192        -0.845181
