19
Iteration:  3611charge 0 multiplicity 1
 C        -3.015982        -1.637869         1.357787
 C        -1.820341        -0.543004         1.124338
 C        -2.048871         0.391386        -0.126369
 C        -1.563314        -0.867604        -0.903909
 C        -0.644562        -1.078350         0.339304
 O        -0.111015        -2.266411         0.757960
 C         0.321550         0.026591         0.114052
 O         1.521405        -0.131634         0.019775
 C        -0.614842         1.245517        -0.087976
 H        -3.545216        -1.725410         0.282334
 H        -2.789214        -2.638712         1.730719
 H        -3.819489        -1.218834         1.993742
 H        -1.545858        -0.175884         2.198286
 H        -2.914690         0.948836        -0.479179
 H        -2.360180        -1.573788        -0.926078
 H        -1.138885        -0.697072        -1.986383
 H         0.792362        -2.540896         0.421354
 H        -0.343918         1.977641         0.750622
 H        -0.396896         1.692225        -1.088531
