19
Iteration:   242
 C        -2.904057        -1.501187         1.479470
 C        -1.813239        -0.530524         1.150573
 C        -2.050205         0.377343        -0.130206
 C        -1.643325        -0.815378        -0.997027
 C        -0.667164        -1.139788         0.234874
 O        -0.113450        -2.362285         0.522938
 C         0.325741         0.026710         0.137099
 O         1.528034        -0.173567         0.081731
 C        -0.656781         1.262414         0.028390
 H        -3.524029        -1.601025         0.574840
 H        -2.510560        -2.503103         1.791530
 H        -3.584880        -1.208814         2.235979
 H        -1.366762        -0.178814         2.120303
 H        -3.010990         0.924330        -0.270850
 H        -2.290808        -1.741866        -1.129038
 H        -1.152941        -0.558354        -1.919011
 H         0.669960        -2.268563         1.020021
 H        -0.652466         1.675650         1.000194
 H        -0.434959         1.993063        -0.804096
