19
Iteration:  2795charge 0 multiplicity 1
 C        -2.936582        -1.491589         1.450763
 C        -1.873808        -0.487318         1.063229
 C        -2.040858         0.402571        -0.242586
 C        -1.605050        -0.910605        -0.996845
 C        -0.689455        -1.186819         0.277642
 O        -0.007104        -2.292054         0.711013
 C         0.279001         0.001157         0.110720
 O         1.495568        -0.125294         0.218001
 C        -0.656407         1.167432        -0.109256
 H        -3.879301        -1.002367         1.581432
 H        -3.057003        -2.230152         0.594941
 H        -2.662131        -1.932841         2.452727
 H        -1.306869        -0.005591         1.959672
 H        -2.958288         0.814848        -0.560565
 H        -2.436286        -1.624418        -1.035587
 H        -1.224938        -1.055837        -2.006681
 H         0.889993        -1.816441         0.838537
 H        -0.471031         1.869354         0.788820
 H        -0.565343         1.836518        -0.977130
