19
Iteration:   325
 C        -2.873111        -1.397058         1.635844
 C        -1.783550        -0.493766         1.110534
 C        -1.988004         0.343871        -0.183566
 C        -1.645193        -0.859401        -1.029895
 C        -0.637611        -1.239231         0.169700
 O        -0.112605        -2.512581         0.348766
 C         0.249043         0.000594         0.123611
 O         1.448913         0.023968         0.344836
 C        -0.643792         1.183987        -0.029257
 H        -3.379615        -1.989936         0.831433
 H        -2.662824        -1.971894         2.558340
 H        -3.684743        -0.634966         1.908322
 H        -1.460213         0.043396         1.997964
 H        -2.914775         0.806755        -0.325803
 H        -2.524776        -1.415595        -1.169478
 H        -1.157262        -0.665126        -2.077222
 H         0.819894        -2.302339         0.508819
 H        -0.506073         1.723560         0.965159
 H        -0.180009         1.864143        -0.723787
