19
Iteration:  4906
 C        -2.922916        -1.411253         1.516260
 C        -1.752641        -0.547984         1.206893
 C        -2.026525         0.334023        -0.173420
 C        -1.565758        -0.879524        -0.900143
 C        -0.664775        -1.156734         0.288351
 O        -0.105080        -2.391158         0.444629
 C         0.261842         0.020105         0.115938
 O         1.462807        -0.008369         0.256912
 C        -0.677975         1.129105        -0.182254
 H        -3.204207        -2.122688         0.560561
 H        -2.858704        -1.997353         2.409179
 H        -3.772234        -0.763420         1.701105
 H        -1.438992        -0.030734         2.198227
 H        -2.887389         0.830916        -0.438236
 H        -2.433055        -1.685583        -1.076814
 H        -1.112634        -0.675270        -1.984008
 H         0.916694        -2.375759         0.586646
 H        -0.511050         1.789090         0.670354
 H        -0.372680         1.685494        -1.168882
