19
Iteration:  4121
 C        -2.889732        -1.605091         1.443677
 C        -1.831735        -0.511960         1.125435
 C        -1.992720         0.346591        -0.200399
 C        -1.587206        -0.818285        -1.063504
 C        -0.672830        -1.090856         0.343105
 O        -0.158350        -2.361950         0.637543
 C         0.309242         0.052895         0.153820
 O         1.500969        -0.134646         0.043567
 C        -0.633542         1.211802         0.027466
 H        -3.059806        -2.355622         0.553627
 H        -2.865409        -2.171899         2.373721
 H        -3.817102        -1.016814         1.716148
 H        -1.590887         0.045055         2.048007
 H        -2.748329         1.047558        -0.470366
 H        -2.370047        -1.584666        -1.167515
 H        -1.043856        -0.634951        -2.061533
 H         0.656997        -2.064661         1.205501
 H        -0.903213         1.783673         0.859431
 H        -0.291259         1.987678        -0.773819
