19
Iteration:  2066charge 0 multiplicity 1
 C        -2.914880        -1.408264         1.777104
 C        -1.807673        -0.589421         1.097536
 C        -1.947759         0.384373        -0.111921
 C        -1.587305        -0.770716        -1.116493
 C        -0.630360        -1.247608         0.112187
 O        -0.201378        -2.559051         0.287814
 C         0.288334         0.013838         0.118663
 O         1.487536         0.097810         0.345085
 C        -0.680085         1.197155        -0.051555
 H        -3.574079        -1.984112         1.197671
 H        -2.261582        -2.226916         2.292839
 H        -3.475601        -0.832919         2.533883
 H        -1.285034        -0.119425         2.050501
 H        -2.878812         0.929054        -0.118207
 H        -2.501609        -1.366356        -1.205870
 H        -1.150279        -0.563379        -2.117951
 H         0.621298        -2.596151         0.911667
 H        -0.531505         1.935577         0.681803
 H        -0.323438         1.367173        -1.129244
