19
Iteration:  3341
 C        -3.019047        -1.521802         1.320531
 C        -1.798892        -0.495511         1.094709
 C        -1.938735         0.422084        -0.046704
 C        -1.619717        -0.862527        -1.004176
 C        -0.671638        -1.193793         0.331314
 O        -0.053068        -2.293414         0.758384
 C         0.276670        -0.037601         0.132850
 O         1.520716        -0.055657         0.048757
 C        -0.682037         1.131984        -0.113237
 H        -3.809113        -1.627747         0.695088
 H        -2.587854        -2.568280         1.399436
 H        -3.532515        -1.260146         2.262415
 H        -1.495249        -0.158404         2.127716
 H        -2.907507         0.886007        -0.363277
 H        -2.435726        -1.585309        -0.987496
 H        -1.218838        -0.606932        -2.039239
 H         0.888927        -2.170836         0.744055
 H        -0.443380         1.753452         0.776476
 H        -0.630832         1.727052        -0.970324
