19
Iteration:  3514charge 0 multiplicity 1
 C        -2.870370        -1.336361         1.557706
 C        -1.741111        -0.512344         1.100219
 C        -2.005003         0.323585        -0.147616
 C        -1.654194        -0.870298        -1.038638
 C        -0.682742        -1.185857         0.192872
 O        -0.042448        -2.459550         0.464476
 C         0.255081        -0.040366         0.116799
 O         1.433030         0.001953         0.461916
 C        -0.702776         1.163672        -0.230999
 H        -3.093048        -2.114726         0.795435
 H        -2.596210        -1.678045         2.519165
 H        -3.813031        -0.853063         1.873460
 H        -1.572575         0.157271         1.925132
 H        -2.955998         0.868715        -0.322122
 H        -2.350064        -1.650630        -1.071446
 H        -1.155998        -0.853109        -1.995665
 H         0.890129        -2.295693         0.553834
 H        -0.356725         1.779148         0.670316
 H        -0.568249         1.569618        -1.230684
