19
Iteration:  1600
 C        -3.082830        -1.440177         1.355536
 C        -1.777677        -0.591064         1.177553
 C        -1.960332         0.396933         0.028181
 C        -1.712856        -0.752572        -0.941836
 C        -0.672086        -1.222757         0.383243
 O         0.043371        -2.410232         0.539076
 C         0.295397        -0.030666         0.143489
 O         1.528132        -0.061218         0.117413
 C        -0.672063         1.169084        -0.142656
 H        -3.426051        -1.632198         0.335338
 H        -2.881443        -2.445431         1.783094
 H        -3.828722        -0.847484         2.033954
 H        -1.362847        -0.181253         2.051152
 H        -2.817793         1.063012        -0.108666
 H        -2.445831        -1.552136        -1.035590
 H        -1.343381        -0.536092        -1.922630
 H         0.890606        -2.184049        -0.031376
 H        -0.457401         1.989340         0.591833
 H        -0.609943         1.633567        -1.095409
