19
Iteration:  4015
 C        -2.793652        -1.346258         1.679029
 C        -1.774673        -0.492759         1.048139
 C        -1.941486         0.337604        -0.250029
 C        -1.725057        -0.995383        -1.059739
 C        -0.640515        -1.212562         0.153565
 O         0.004992        -2.363577         0.324582
 C         0.186299        -0.005497         0.149202
 O         1.327330        -0.047018         0.547233
 C        -0.607398         1.199481        -0.158195
 H        -3.545702        -1.702167         0.875122
 H        -2.441103        -2.252533         2.066993
 H        -3.400047        -0.673853         2.334211
 H        -1.366636         0.099238         1.910127
 H        -2.804713         0.943400        -0.292404
 H        -2.592533        -1.675157        -0.889996
 H        -1.366544        -1.102439        -2.029740
 H         0.659014        -2.297820         1.049894
 H        -0.574356         2.000848         0.624073
 H        -0.461185         1.527946        -1.203124
