19
Iteration:   678charge 0 multiplicity 1
 C        -2.856139        -1.493120         1.665794
 C        -1.733266        -0.503875         1.115648
 C        -1.996846         0.400812        -0.131884
 C        -1.662004        -0.797929        -0.985479
 C        -0.630310        -1.232616         0.132342
 O        -0.189915        -2.419307         0.350808
 C         0.280903         0.049929         0.163554
 O         1.473354        -0.071655         0.397303
 C        -0.677729         1.180113        -0.174828
 H        -3.306978        -1.880867         0.789417
 H        -2.313377        -2.282995         2.233946
 H        -3.599136        -1.057412         2.310673
 H        -1.236001        -0.070885         2.007993
 H        -2.914668         0.948121        -0.304638
 H        -2.527535        -1.456092        -1.150842
 H        -1.218149        -0.635919        -2.006686
 H         0.802553        -2.274443         0.572547
 H        -0.654203         1.965743         0.520871
 H        -0.401704         1.473599        -1.223894
