19
Iteration:  3762charge 0 multiplicity 1
 C        -2.776625        -1.377168         1.682403
 C        -1.744653        -0.460799         1.070026
 C        -2.023464         0.390714        -0.269428
 C        -1.721346        -0.943984        -1.083751
 C        -0.678723        -1.214618         0.154193
 O        -0.054048        -2.416994         0.404550
 C         0.252757        -0.046831         0.141302
 O         1.416891        -0.019790         0.565472
 C        -0.646297         1.156457        -0.211834
 H        -3.330945        -1.945604         0.824073
 H        -2.273498        -2.218251         2.260827
 H        -3.556506        -0.738769         2.152247
 H        -1.250235         0.032342         1.952295
 H        -2.949308         0.924083        -0.410797
 H        -2.532509        -1.625067        -1.037836
 H        -1.571167        -0.810877        -2.260959
 H         0.616921        -2.120540         1.049280
 H        -0.515510         1.866948         0.554107
 H        -0.516588         1.690766        -1.254843
