19
Iteration:   452charge 0 multiplicity 1
 C        -3.073816        -1.314084         1.627841
 C        -1.816531        -0.562672         1.118240
 C        -1.972933         0.330757        -0.140996
 C        -1.461110        -0.813704        -1.012775
 C        -0.707670        -1.255586         0.332569
 O         0.021376        -2.425199         0.281083
 C         0.254517        -0.003335         0.254608
 O         1.457981        -0.073389         0.175087
 C        -0.718903         1.157803        -0.061604
 H        -3.630393        -1.720428         0.803588
 H        -2.538943        -2.053123         2.237187
 H        -3.707804        -0.579126         2.210836
 H        -1.405444        -0.065518         2.037794
 H        -2.942931         0.830371        -0.314022
 H        -2.284631        -1.443054        -1.146440
 H        -0.890971        -0.784430        -1.934190
 H         0.819052        -2.265159         0.751123
 H        -0.782751         1.956911         0.765571
 H        -0.480132         1.737710        -0.992891
