19
Iteration:  2821charge 0 multiplicity 1
 C        -2.939432        -1.523941         1.631140
 C        -1.867368        -0.512459         1.092478
 C        -1.933964         0.351253        -0.272073
 C        -1.528702        -0.863109        -1.066087
 C        -0.703913        -1.192194         0.295985
 O        -0.138269        -2.367871         0.623386
 C         0.260023         0.043166         0.176787
 O         1.479126        -0.021298         0.342271
 C        -0.644224         1.167450        -0.292499
 H        -3.650875        -1.028040         2.315425
 H        -3.444147        -2.119008         0.813725
 H        -2.331275        -2.183390         2.253371
 H        -1.345015        -0.032843         2.018502
 H        -2.938850         0.891960        -0.457956
 H        -2.155560        -1.733450        -1.433050
 H        -0.979851        -0.541322        -2.039780
 H         0.754958        -2.207350         0.417389
 H        -0.782710         2.041654         0.308828
 H        -0.427915         1.611454        -1.285674
