19
Iteration:  4179charge 0 multiplicity 1
 C        -3.075327        -1.439855         1.321561
 C        -1.828623        -0.548242         1.159561
 C        -2.000489         0.307870        -0.049799
 C        -1.523154        -0.887211        -0.954601
 C        -0.681445        -1.198116         0.305494
 O        -0.060615        -2.407908         0.633853
 C         0.335035         0.073469         0.157443
 O         1.549944        -0.042888         0.062976
 C        -0.685025         1.239043        -0.035196
 H        -3.605540        -1.838636         0.405684
 H        -2.775265        -2.348897         1.882907
 H        -3.836920        -0.809104         1.862753
 H        -1.373645        -0.020993         1.965688
 H        -2.966055         0.754159        -0.231489
 H        -2.309113        -1.635321        -0.879976
 H        -1.223715        -0.827768        -1.949190
 H         0.918729        -2.308690         0.422342
 H        -0.792016         2.056204         0.713677
 H        -0.485574         1.741878        -1.050771
