19
Iteration:  3414
 C        -2.992159        -1.318112         1.695023
 C        -1.801019        -0.560227         1.184748
 C        -1.911416         0.296557        -0.210526
 C        -1.559612        -0.947413        -1.093253
 C        -0.727725        -1.235229         0.131375
 O        -0.057817        -2.454956         0.403981
 C         0.302500         0.035525         0.098289
 O         1.480877         0.046728         0.407346
 C        -0.686481         1.198090        -0.182001
 H        -3.299799        -2.206586         0.982611
 H        -2.691248        -1.908788         2.540965
 H        -3.924218        -0.757716         1.878166
 H        -1.376283        -0.076592         2.039471
 H        -2.840436         0.887275        -0.258608
 H        -2.420830        -1.557517        -1.079892
 H        -1.095965        -0.775235        -2.042134
 H         0.652308        -2.339478         1.019010
 H        -0.901105         1.917667         0.665109
 H        -0.490052         1.830803        -1.074387
