19
Iteration:   623
 C        -2.996975        -1.278462         1.646875
 C        -1.752301        -0.640015         1.139709
 C        -2.041043         0.333276        -0.033961
 C        -1.711629        -0.872812        -1.083132
 C        -0.608634        -1.224956         0.192861
 O         0.014268        -2.402098         0.290767
 C         0.286554         0.012506         0.163310
 O         1.500612        -0.060913         0.384561
 C        -0.679049         1.168785        -0.141112
 H        -3.685842        -1.562367         0.830360
 H        -3.026561        -2.270791         2.182987
 H        -3.486229        -0.514660         2.225338
 H        -1.328302        -0.153964         2.058277
 H        -2.956599         0.951737         0.031004
 H        -2.541603        -1.730800        -1.031952
 H        -1.292194        -0.639736        -2.085834
 H         1.004824        -2.200153         0.354356
 H        -0.518018         2.093390         0.346956
 H        -0.499274         1.563623        -1.191284
