19
Iteration:    66charge 0 multiplicity 1
 C        -2.805566        -1.448414         1.630950
 C        -1.724113        -0.490760         1.126657
 C        -1.981654         0.368467        -0.073748
 C        -1.732675        -0.765474        -1.031096
 C        -0.646444        -1.235054         0.040844
 O        -0.184889        -2.514901         0.385921
 C         0.314724        -0.052476         0.059015
 O         1.496860        -0.014376         0.388081
 C        -0.702361         1.208917        -0.078121
 H        -2.475903        -2.482114         1.533448
 H        -2.995132        -1.195263         2.664262
 H        -3.672925        -1.240029         1.052427
 H        -1.381511         0.074020         2.000808
 H        -2.915904         0.859606        -0.192530
 H        -2.599924        -1.317930        -1.263951
 H        -1.216692        -0.423070        -1.959634
 H         0.569725        -2.454331         0.935075
 H        -0.663893         1.869951         0.801479
 H        -0.437766         1.861987        -0.914499
