19
Iteration:  1229
 C        -2.775727        -1.510233         1.528467
 C        -1.824184        -0.458664         1.156908
 C        -1.940455         0.431179        -0.099485
 C        -1.735305        -0.835336        -0.956617
 C        -0.665634        -1.153274         0.179457
 O        -0.147222        -2.489241         0.307981
 C         0.268980         0.059140         0.123898
 O         1.423701        -0.069703         0.466214
 C        -0.623638         1.196928        -0.223884
 H        -3.108608        -2.266808         0.853388
 H        -2.279732        -2.198099         2.302592
 H        -3.366778        -0.914389         2.172945
 H        -1.445959        -0.030571         2.087409
 H        -2.831529         1.021486        -0.290852
 H        -2.507439        -1.581334        -1.019543
 H        -1.285529        -0.896649        -1.974974
 H         0.773485        -2.306570         0.726054
 H        -0.616679         1.917273         0.630941
 H        -0.344788         1.557103        -1.242196
