19
Iteration:  3569
 C        -3.121772        -1.428800         1.467284
 C        -1.885931        -0.542371         1.203691
 C        -1.987509         0.355157        -0.174467
 C        -1.497980        -0.854253        -0.963509
 C        -0.600195        -1.185749         0.301011
 O        -0.018060        -2.423261         0.623539
 C         0.282235        -0.018501         0.096382
 O         1.518638        -0.021832         0.061381
 C        -0.696799         1.181321        -0.072442
 H        -3.785715        -1.609321         0.542616
 H        -2.922863        -2.447569         1.794461
 H        -3.615613        -0.883963         2.315201
 H        -1.557458         0.154925         2.064824
 H        -2.951571         0.812114        -0.506809
 H        -2.023792        -1.723639        -1.193144
 H        -0.876621        -0.628383        -1.856987
 H         0.845209        -2.146459         0.909049
 H        -0.736939         1.939581         0.825155
 H        -0.419362         1.683497        -1.009445
