19
Iteration:  4049
 C        -2.952539        -1.339858         1.599744
 C        -1.787839        -0.555957         1.156440
 C        -1.943859         0.304560        -0.103098
 C        -1.655834        -0.891983        -1.047672
 C        -0.591274        -1.200309         0.186060
 O        -0.062223        -2.448612         0.365487
 C         0.288270         0.033400         0.102782
 O         1.443455         0.035777         0.521454
 C        -0.696603         1.107834        -0.248393
 H        -3.557747        -1.738864         0.776940
 H        -2.816841        -1.996935         2.408417
 H        -3.671584        -0.695180         2.160093
 H        -1.402932         0.168004         1.916708
 H        -2.898589         0.868901        -0.093245
 H        -2.332010        -1.808246        -1.082652
 H        -1.285592        -0.661869        -2.020247
 H         0.943818        -2.393852         0.106519
 H        -0.464687         2.074918         0.316435
 H        -0.669274         1.407150        -1.283560
