19
Iteration:   685charge 0 multiplicity 1
 C        -2.768578        -1.492860         1.687371
 C        -1.732807        -0.615317         1.127287
 C        -2.011551         0.438699        -0.170377
 C        -1.640300        -0.752803        -1.078966
 C        -0.670628        -1.186489         0.099750
 O        -0.203036        -2.433840         0.438063
 C         0.278543        -0.015442         0.129295
 O         1.489195        -0.074357         0.392870
 C        -0.722560         1.251721        -0.104567
 H        -3.434052        -1.995787         0.842976
 H        -2.374783        -2.339100         2.296639
 H        -3.566795        -0.869577         2.204944
 H        -1.274062         0.034450         1.928464
 H        -2.972957         1.007570        -0.286032
 H        -2.481237        -1.520464        -1.265480
 H        -1.190921        -0.817461        -2.069065
 H         0.818589        -2.506153         0.581677
 H        -0.524945         2.249533         0.517718
 H        -0.500698         1.471122        -1.180876
