19
Iteration:   612
 C        -3.021355        -1.278916         1.676087
 C        -1.709220        -0.659526         1.094414
 C        -2.034614         0.341931        -0.061934
 C        -1.653747        -0.857451        -1.042736
 C        -0.704594        -1.203799         0.135096
 O         0.020781        -2.402356         0.368889
 C         0.293709        -0.013518         0.093402
 O         1.486072        -0.051457         0.365096
 C        -0.702735         1.142208        -0.084909
 H        -3.693263        -1.464986         0.831023
 H        -2.756905        -2.138056         2.391176
 H        -3.519945        -0.534616         2.278759
 H        -1.120818        -0.149661         1.889215
 H        -3.032443         0.835277        -0.069426
 H        -2.541460        -1.476464        -1.560040
 H        -1.098927        -0.508144        -1.933032
 H         1.040885        -2.144172         0.245072
 H        -0.592886         1.801074         0.753964
 H        -0.535367         1.496427        -1.142341
