19
Iteration:  1867charge 0 multiplicity 1
 C        -2.933226        -1.590229         1.401360
 C        -1.747379        -0.441493         1.216408
 C        -1.948422         0.433186        -0.090518
 C        -1.639647        -0.831742        -0.821277
 C        -0.723528        -1.151390         0.311427
 O        -0.133709        -2.368026         0.456299
 C         0.252904         0.009598         0.110171
 O         1.460327        -0.107206         0.221948
 C        -0.591050         1.199805        -0.206798
 H        -3.213580        -1.767695         0.342904
 H        -2.346051        -2.447755         1.838023
 H        -3.841937        -1.442453         1.948398
 H        -1.410379        -0.132431         2.164551
 H        -2.923056         0.858149        -0.005964
 H        -2.455196        -1.547626        -0.919164
 H        -1.325904        -0.665368        -1.839565
 H         0.833529        -2.189353         0.268263
 H        -0.433046         1.895513         0.591682
 H        -0.284092         1.627176        -1.146897
