19
Iteration:   931
 C        -2.900028        -1.360345         1.779742
 C        -1.777966        -0.588978         1.090403
 C        -2.009022         0.294486        -0.138839
 C        -1.635223        -0.856338        -1.097671
 C        -0.652360        -1.140378         0.201372
 O        -0.023782        -2.387538         0.253100
 C         0.232505         0.022638         0.147088
 O         1.425285        -0.127102         0.428319
 C        -0.655621         1.161475        -0.163562
 H        -3.519608        -1.833947         0.998367
 H        -2.736699        -2.165247         2.563894
 H        -3.529986        -0.626424         2.310058
 H        -1.375084        -0.100582         1.990745
 H        -2.925350         0.935727        -0.350085
 H        -2.506792        -1.524139        -1.138727
 H        -1.026417        -0.576828        -1.938784
 H         0.819939        -1.999752         0.463767
 H        -0.637891         1.987372         0.548375
 H        -0.347784         1.851617        -1.037424
