19
Iteration:  2183
 C        -2.846638        -1.522812         1.555433
 C        -1.784500        -0.465225         1.162827
 C        -1.934019         0.423311        -0.097122
 C        -1.563768        -0.853421        -1.007589
 C        -0.694185        -1.163108         0.245407
 O        -0.209419        -2.396742         0.476218
 C         0.265861        -0.016459         0.171058
 O         1.485181        -0.089612         0.026321
 C        -0.713979         1.229133         0.020010
 H        -3.620159        -1.427855         0.788656
 H        -2.352364        -2.532035         1.273195
 H        -3.281284        -1.441603         2.523810
 H        -1.451025         0.060088         2.029886
 H        -2.828036         1.010047        -0.150120
 H        -2.414996        -1.544707        -1.161291
 H        -0.940882        -0.779050        -1.917927
 H         0.689563        -2.627737         0.799028
 H        -0.657323         1.654611         1.077409
 H        -0.440419         1.949031        -0.771514
