19
Iteration:  4377charge 0 multiplicity 1
 C        -3.036318        -1.335099         1.438130
 C        -1.817856        -0.597302         1.111585
 C        -1.960733         0.345821        -0.099555
 C        -1.535543        -0.954965        -0.997924
 C        -0.678609        -1.189434         0.294448
 O        -0.018254        -2.358798         0.550651
 C         0.272320        -0.017120         0.090055
 O         1.487880        -0.054636         0.151770
 C        -0.708815         1.171340        -0.024735
 H        -3.492450        -1.654517         0.544463
 H        -2.785587        -2.227783         2.142953
 H        -3.709583        -0.693934         2.141238
 H        -1.308479        -0.004458         1.961717
 H        -2.897527         0.965619        -0.314790
 H        -2.296066        -1.636858        -1.265955
 H        -0.905990        -0.744065        -1.914005
 H         0.893552        -1.977612         0.758748
 H        -0.849490         1.788313         0.925880
 H        -0.706971         1.829300        -0.825637
