19
Iteration:  2731
 C        -3.182869        -1.414672         1.473046
 C        -1.899048        -0.590206         1.160120
 C        -1.992507         0.298077        -0.110174
 C        -1.416757        -0.898333        -1.055932
 C        -0.643043        -1.168185         0.400657
 O        -0.074214        -2.454489         0.675554
 C         0.351564         0.094446         0.137638
 O         1.541105         0.066718         0.005215
 C        -0.633074         1.156195        -0.088531
 H        -3.935619        -1.189416         0.797775
 H        -2.930415        -2.571610         1.264690
 H        -3.658526        -1.478182         2.517600
 H        -1.699655         0.094148         2.078084
 H        -2.939020         0.769140        -0.382035
 H        -2.216063        -1.694800        -1.039379
 H        -1.186568        -0.546292        -2.155471
 H         0.984634        -2.427831         0.757893
 H        -0.536932         2.075513         0.536356
 H        -0.490676         1.561519        -1.126257
