19
Iteration:  2726charge 0 multiplicity 1
 C        -3.135652        -1.414075         1.475962
 C        -1.895423        -0.583213         1.146595
 C        -1.993760         0.277833        -0.134122
 C        -1.431758        -0.901303        -1.030634
 C        -0.650559        -1.157039         0.363417
 O        -0.091214        -2.449781         0.679562
 C         0.352004         0.026062         0.118254
 O         1.572765         0.070831         0.024059
 C        -0.703920         1.187755        -0.062735
 H        -3.977624        -1.235505         0.679770
 H        -2.830060        -2.370192         1.263711
 H        -3.533177        -1.316247         2.456328
 H        -1.610541        -0.039023         2.063447
 H        -2.878256         0.895709        -0.374125
 H        -2.089943        -1.749317        -1.024852
 H        -1.252378        -0.709090        -2.040480
 H         0.818033        -2.264214         0.759362
 H        -0.586780         2.073228         0.587905
 H        -0.384453         1.659006        -1.006867
