19
Iteration:  2371charge 0 multiplicity 1
 C        -2.777903        -1.523168         1.597828
 C        -1.820059        -0.445520         1.181647
 C        -2.015485         0.453776        -0.084660
 C        -1.698602        -0.860435        -1.008636
 C        -0.681321        -1.180638         0.190619
 O        -0.155535        -2.481939         0.300139
 C         0.289419         0.053613         0.151933
 O         1.484402        -0.079772         0.355809
 C        -0.604698         1.183061        -0.123108
 H        -3.602447        -1.530774         0.943064
 H        -2.521197        -2.699406         1.580739
 H        -3.307370        -1.312374         2.571698
 H        -1.282379         0.015254         2.034556
 H        -2.834279         1.084598        -0.434585
 H        -2.665227        -1.330324        -0.942883
 H        -1.258320        -0.566626        -1.983820
 H         0.792135        -2.379176         0.681582
 H        -0.518218         2.052274         0.513824
 H        -0.496667         1.596445        -1.187446
