19
Iteration:  1602charge 0 multiplicity 1
 C        -3.099976        -1.430483         1.344764
 C        -1.772904        -0.595975         1.179132
 C        -1.950437         0.402459         0.024305
 C        -1.731342        -0.766897        -0.924126
 C        -0.670872        -1.221335         0.365307
 O         0.054004        -2.391472         0.545387
 C         0.301058        -0.045451         0.135444
 O         1.523862        -0.053889         0.114346
 C        -0.663351         1.166212        -0.133087
 H        -3.410872        -1.694665         0.290843
 H        -2.928204        -2.359260         1.750344
 H        -3.804592        -0.988380         2.011982
 H        -1.331425        -0.200563         2.053164
 H        -2.762294         1.123710        -0.078928
 H        -2.485617        -1.529631        -0.994569
 H        -1.348789        -0.564689        -1.889506
 H         0.870701        -2.285868         0.012131
 H        -0.481091         2.005365         0.634640
 H        -0.637577         1.628446        -1.099611
