19
Iteration:   345charge 0 multiplicity 1
 C        -2.819814        -1.456069         1.695551
 C        -1.800246        -0.526964         1.040188
 C        -1.975859         0.460311        -0.190928
 C        -1.609300        -0.841104        -1.090998
 C        -0.753409        -1.242897         0.115749
 O        -0.139708        -2.404302         0.351547
 C         0.263259         0.019955         0.185856
 O         1.481830        -0.098970         0.375704
 C        -0.666329         1.219455        -0.056788
 H        -3.061958        -2.374216         1.132482
 H        -2.198474        -2.009811         2.389714
 H        -3.733955        -1.204352         2.327350
 H        -1.344165        -0.016206         1.926597
 H        -2.804918         1.088923        -0.385731
 H        -2.329027        -1.638852        -1.049299
 H        -1.215519        -0.782855        -2.234902
 H         0.410427        -2.236644         1.201626
 H        -0.647968         2.028793         0.735437
 H        -0.346685         1.719465        -0.931836
