19
Iteration:  4399
 C        -3.087091        -1.440258         1.394380
 C        -1.853245        -0.586243         1.186230
 C        -1.982296         0.354947        -0.152629
 C        -1.567868        -0.821306        -0.944808
 C        -0.579426        -1.158297         0.316842
 O         0.044553        -2.406377         0.663157
 C         0.250474         0.017457         0.161464
 O         1.443550        -0.125164         0.052914
 C        -0.663606         1.242070        -0.069238
 H        -3.456174        -1.659937         0.438294
 H        -2.728780        -2.398530         1.907841
 H        -3.915519        -1.058107         2.093856
 H        -1.629440         0.160628         2.009926
 H        -2.937377         0.922953        -0.410400
 H        -2.308235        -1.563136        -1.058767
 H        -1.181548        -0.545870        -1.965667
 H         0.943025        -2.178664         0.208287
 H        -0.673314         2.060137         0.715221
 H        -0.255963         1.573260        -0.956775
