19
Iteration:  2188charge 0 multiplicity 1
 C        -2.873339        -1.532445         1.553285
 C        -1.767346        -0.471554         1.190406
 C        -1.961766         0.451637        -0.092456
 C        -1.557544        -0.901506        -0.987950
 C        -0.679455        -1.141123         0.270571
 O        -0.235687        -2.404520         0.449076
 C         0.285588        -0.007561         0.161668
 O         1.503092        -0.053451         0.016301
 C        -0.674466         1.190147         0.011292
 H        -3.585834        -1.548171         0.689899
 H        -2.466503        -2.510501         1.338729
 H        -3.379220        -1.548975         2.569044
 H        -1.569426         0.181826         2.110155
 H        -2.910057         1.051200        -0.120719
 H        -2.471475        -1.440476        -1.236349
 H        -0.880423        -0.750825        -1.842525
 H         0.658383        -2.539388         0.740546
 H        -0.764710         1.649572         0.975854
 H        -0.306199         1.848212        -0.820326
