19
Iteration:  4905
 C        -2.919589        -1.405456         1.511591
 C        -1.748224        -0.538641         1.202412
 C        -2.015531         0.325368        -0.173261
 C        -1.571606        -0.878645        -0.903110
 C        -0.665011        -1.161464         0.285143
 O        -0.104064        -2.393160         0.439600
 C         0.262140         0.032330         0.110422
 O         1.456309        -0.005318         0.261892
 C        -0.671750         1.125101        -0.174276
 H        -3.247705        -2.116497         0.588990
 H        -2.854711        -1.971239         2.408256
 H        -3.791313        -0.772484         1.707070
 H        -1.455262        -0.049428         2.247645
 H        -2.893657         0.791736        -0.428085
 H        -2.442580        -1.740678        -1.083480
 H        -1.170810        -0.703525        -1.962455
 H         0.925853        -2.403107         0.596306
 H        -0.527264         1.828496         0.661292
 H        -0.358322         1.645403        -1.125252
