19
Iteration:  3662charge 0 multiplicity 1
 C        -2.924988        -1.413735         1.527539
 C        -1.767287        -0.506342         1.107172
 C        -1.909504         0.335082        -0.141803
 C        -1.520868        -0.918936        -1.077171
 C        -0.694694        -1.189889         0.220799
 O        -0.172979        -2.456590         0.545619
 C         0.233534         0.040949         0.211503
 O         1.449019        -0.012572         0.167115
 C        -0.686373         1.256546        -0.073361
 H        -3.125960        -2.207812         0.833674
 H        -2.513461        -2.150161         2.255411
 H        -3.716688        -0.786972         1.935394
 H        -1.452255        -0.049977         2.025753
 H        -2.862102         0.864451        -0.355662
 H        -2.209736        -1.785587        -1.087684
 H        -0.872659        -0.844445        -1.980885
 H         0.668696        -2.343381         1.020046
 H        -0.817734         1.848701         0.781623
 H        -0.411946         1.833712        -0.991976
