19
Iteration:  4646charge 0 multiplicity 1
 C        -2.911349        -1.524405         1.490070
 C        -1.870401        -0.445964         1.204351
 C        -1.974896         0.399555        -0.138795
 C        -1.605615        -0.858557        -0.967572
 C        -0.636813        -1.198920         0.193133
 O        -0.129808        -2.410898         0.602670
 C         0.281704         0.003998         0.064143
 O         1.482585        -0.003086         0.213930
 C        -0.621635         1.159518        -0.112232
 H        -3.479511        -1.946597         0.549056
 H        -2.611615        -2.224134         2.235303
 H        -3.854548        -1.098891         1.775402
 H        -1.542299         0.014730         2.167723
 H        -2.892714         0.863386        -0.486510
 H        -2.319886        -1.588673        -1.061652
 H        -1.225990        -0.900827        -1.973425
 H         0.904670        -2.271207         0.612568
 H        -0.330661         1.837287         0.610556
 H        -0.359235         1.633246        -1.146569
