19
Iteration:   994charge 0 multiplicity 1
 C        -2.943396        -1.439235         1.501452
 C        -1.781987        -0.544851         1.216116
 C        -1.963004         0.385868        -0.013923
 C        -1.637432        -0.901318        -0.922482
 C        -0.621531        -1.165346         0.183609
 O        -0.156474        -2.435581         0.353868
 C         0.305805         0.058551         0.112577
 O         1.502164         0.015590         0.303538
 C        -0.667365         1.112183        -0.182552
 H        -3.318358        -2.162567         0.691037
 H        -2.771360        -2.130011         2.383998
 H        -3.614877        -0.571176         1.907463
 H        -1.311908        -0.109024         2.108030
 H        -2.897168         0.998280         0.013683
 H        -2.404064        -1.575039        -1.178870
 H        -1.176292        -0.689731        -1.908057
 H         0.772057        -2.639380         0.364646
 H        -0.621524         1.923046         0.629217
 H        -0.614426         1.719285        -1.128568
