19
Iteration:   542charge 0 multiplicity 1
 C        -2.836387        -1.626147         1.413269
 C        -1.773520        -0.521111         1.208417
 C        -2.057268         0.463557        -0.065995
 C        -1.622469        -0.771192        -0.910788
 C        -0.684047        -1.115447         0.310930
 O        -0.262153        -2.485239         0.573922
 C         0.331304         0.009043         0.063457
 O         1.537252        -0.039815         0.129238
 C        -0.615607         1.223864        -0.160504
 H        -3.107304        -2.380717         0.628746
 H        -2.619810        -2.126956         2.349731
 H        -3.913536        -1.285711         1.663662
 H        -1.496530         0.027859         2.162773
 H        -2.912599         1.136158        -0.139623
 H        -2.309859        -1.605036        -1.165843
 H        -0.944471        -0.522421        -1.792479
 H         0.643669        -2.449022         0.387305
 H        -0.425787         2.108234         0.621405
 H        -0.357873         1.661557        -1.130238
