19
Iteration:  4632charge 0 multiplicity 1
 C        -2.884005        -1.443739         1.495869
 C        -1.847710        -0.477539         1.071604
 C        -1.974789         0.365922        -0.122665
 C        -1.618500        -0.979562        -0.994553
 C        -0.693259        -1.151681         0.181063
 O        -0.181324        -2.384395         0.549313
 C         0.315946        -0.025367         0.150106
 O         1.529820         0.002901         0.256641
 C        -0.653286         1.165272        -0.114866
 H        -3.205974        -2.146097         0.693617
 H        -2.247131        -2.131708         2.094086
 H        -3.598575        -1.024914         2.226510
 H        -1.335423         0.071270         2.002580
 H        -2.842868         0.980894        -0.269674
 H        -2.554555        -1.621200        -0.954638
 H        -1.139176        -0.676210        -2.026299
 H         0.688298        -2.279263         0.856309
 H        -0.735557         1.921903         0.679512
 H        -0.475090         1.684053        -1.057661
