19
Iteration:  1340
 C        -2.981174        -1.579314         1.548590
 C        -1.842150        -0.569066         1.208036
 C        -1.942083         0.457802        -0.098146
 C        -1.604458        -0.663405        -1.035603
 C        -0.671310        -1.171162         0.288496
 O        -0.007314        -2.382178         0.581811
 C         0.254429        -0.008945         0.125059
 O         1.434045        -0.218781         0.128108
 C        -0.656721         1.263212        -0.137760
 H        -3.357768        -2.079284         0.586876
 H        -2.694003        -2.431191         2.136547
 H        -3.899920        -1.223119         1.841341
 H        -1.497626        -0.172455         2.217448
 H        -2.841214         0.998958        -0.435804
 H        -2.292484        -1.384483        -1.430961
 H        -1.008404        -0.367601        -1.930029
 H         0.997059        -2.128596         0.534483
 H        -0.456343         2.077376         0.628931
 H        -0.590207         1.686123        -1.145979
