19
Iteration:  1997charge 0 multiplicity 1
 C        -2.937651        -1.594759         1.475578
 C        -1.674323        -0.570690         1.172800
 C        -1.961791         0.500033        -0.084608
 C        -1.826374        -0.699972        -0.962013
 C        -0.681173        -1.164652         0.250070
 O        -0.097302        -2.427850         0.454053
 C         0.302630        -0.029325         0.087795
 O         1.517256        -0.061679         0.273938
 C        -0.613214         1.179109        -0.169591
 H        -2.965571        -2.477165         0.771261
 H        -2.719995        -2.115602         2.420592
 H        -3.907707        -1.195518         1.584064
 H        -1.227119         0.036064         2.012129
 H        -2.921651         1.021836        -0.042230
 H        -2.674264        -1.385828        -0.879473
 H        -1.380136        -0.723994        -1.932243
 H         0.718222        -2.155260         0.845369
 H        -0.543128         1.947191         0.662855
 H        -0.526500         1.558623        -1.193445
