19
Iteration:  2395
 C        -2.909824        -1.477251         1.644694
 C        -1.827280        -0.534201         1.151108
 C        -1.978751         0.406373        -0.084639
 C        -1.544752        -0.783838        -1.013407
 C        -0.675494        -1.163638         0.269201
 O        -0.107135        -2.318718         0.319774
 C         0.243616        -0.030190         0.180182
 O         1.455942        -0.202355         0.264575
 C        -0.669368         1.206665        -0.152767
 H        -3.991080        -1.514129         1.282487
 H        -2.642828        -2.567442         1.357472
 H        -3.004458        -1.547867         2.772127
 H        -1.326318        -0.117745         1.980794
 H        -2.797168         1.125153        -0.280815
 H        -2.261071        -1.609593        -1.041277
 H        -1.020099        -0.402555        -1.867858
 H         0.879214        -2.149546         0.295582
 H        -0.768670         2.034666         0.567106
 H        -0.444014         1.710326        -1.209916
