19
Iteration:  2501charge 0 multiplicity 1
 C        -2.953614        -1.539708         1.488459
 C        -1.839565        -0.547036         1.181015
 C        -1.999572         0.461714        -0.119439
 C        -1.567599        -0.783471        -0.999267
 C        -0.673533        -1.186039         0.246234
 O        -0.124146        -2.383699         0.599806
 C         0.272907         0.024261         0.154648
 O         1.478233        -0.102356         0.070421
 C        -0.621043         1.174194        -0.059138
 H        -3.014114        -1.602117         2.546074
 H        -3.976945        -1.271492         0.984056
 H        -2.605535        -2.554240         1.146773
 H        -1.449248        -0.074928         2.124114
 H        -2.797070         1.131453        -0.371685
 H        -2.261830        -1.655350        -1.082734
 H        -1.106717        -0.717975        -2.070002
 H         0.872484        -2.153231         0.535845
 H        -0.476998         1.780667         0.844096
 H        -0.404057         1.761015        -0.950249
