19
Iteration:  1304charge 0 multiplicity 1
 C        -2.987517        -1.350316         1.562972
 C        -1.843498        -0.532948         1.119647
 C        -1.966494         0.335669        -0.189312
 C        -1.606044        -0.911823        -1.028858
 C        -0.635799        -1.189082         0.209632
 O        -0.052654        -2.383345         0.382499
 C         0.274622        -0.014957         0.196077
 O         1.481638        -0.054477         0.178941
 C        -0.707756         1.138870         0.091572
 H        -3.337369        -1.880136         0.733755
 H        -2.676710        -2.052886         2.397679
 H        -3.673782        -0.651826         2.130638
 H        -1.313380         0.030036         2.012520
 H        -2.818040         0.988125        -0.371713
 H        -2.355130        -1.754559        -0.998171
 H        -1.027707        -0.615083        -1.946375
 H         0.952651        -2.216435         0.276707
 H        -0.662080         1.669970         1.074537
 H        -0.419351         1.892195        -0.701267
