19
Iteration:  2934charge 0 multiplicity 1
 C        -2.866377        -1.411723         1.586935
 C        -1.873228        -0.457717         1.082547
 C        -1.949888         0.350200        -0.304780
 C        -1.598212        -1.014073        -0.984444
 C        -0.682603        -1.201452         0.190974
 O        -0.031167        -2.364048         0.523291
 C         0.223454         0.039555         0.223356
 O         1.421683        -0.029219         0.438606
 C        -0.645072         1.193407        -0.280179
 H        -3.458787        -0.929415         2.471914
 H        -3.569732        -1.613749         0.835566
 H        -2.504256        -2.331927         2.030850
 H        -1.446664         0.021813         1.948651
 H        -2.932531         0.777032        -0.415423
 H        -2.468568        -1.678639        -0.818789
 H        -1.198945        -1.177680        -2.006827
 H         0.959597        -2.209181         0.243663
 H        -0.824009         1.971932         0.491318
 H        -0.236325         1.600498        -1.198893
