19
Iteration:  1821charge 0 multiplicity 1
 C        -2.856134        -1.409474         1.702918
 C        -1.712031        -0.598026         1.129362
 C        -2.019354         0.326463        -0.105266
 C        -1.613148        -0.796044        -1.154083
 C        -0.645940        -1.184835         0.087339
 O        -0.189589        -2.459578         0.378859
 C         0.266180        -0.019680         0.182992
 O         1.482170        -0.001579         0.357102
 C        -0.694194         1.180508        -0.104787
 H        -3.590507        -1.621018         0.819827
 H        -2.608744        -2.195152         2.379814
 H        -3.448468        -0.712740         2.332653
 H        -1.279924        -0.047467         1.970350
 H        -2.895227         1.005839        -0.210409
 H        -2.222169        -1.621331        -1.466410
 H        -1.061278        -0.474482        -2.017728
 H         0.699202        -2.340365         0.842714
 H        -0.696073         1.825399         0.825794
 H        -0.420274         1.681117        -0.978241
