19
Iteration:  3740
 C        -2.905642        -1.338091         1.653361
 C        -1.739017        -0.484482         1.143228
 C        -1.950292         0.340142        -0.093097
 C        -1.698762        -0.947276        -0.969440
 C        -0.566074        -1.182726         0.110335
 O        -0.047982        -2.387173         0.335797
 C         0.257220         0.006233         0.071883
 O         1.359399        -0.073988         0.609335
 C        -0.699330         1.139575        -0.349953
 H        -3.267232        -2.012767         0.794780
 H        -2.483525        -1.994358         2.456863
 H        -3.739158        -0.636907         1.844237
 H        -1.323555         0.034122         2.037708
 H        -2.915230         0.829172        -0.162510
 H        -2.460505        -1.653563        -1.171380
 H        -1.211332        -0.770904        -2.054695
 H         0.873995        -2.138034         0.539782
 H        -0.653094         1.949956         0.311095
 H        -0.317808         1.482484        -1.366264
