19
Iteration:   129charge 0 multiplicity 1
 C        -3.027908        -1.413157         1.640337
 C        -1.823852        -0.465756         1.232094
 C        -2.012409         0.398272        -0.003767
 C        -1.706788        -0.831133        -0.932979
 C        -0.636795        -1.194831         0.108974
 O         0.033882        -2.453141         0.186187
 C         0.308413        -0.043985         0.133146
 O         1.491407        -0.064699         0.367143
 C        -0.641660         1.134530        -0.176312
 H        -3.114929        -2.404326         1.195925
 H        -3.144542        -1.474666         2.704641
 H        -4.021263        -0.920871         1.409494
 H        -1.347507         0.113517         2.040385
 H        -2.936793         1.000443        -0.058891
 H        -2.391402        -1.605343        -1.132215
 H        -1.236259        -0.700491        -1.898941
 H         0.900957        -2.130530         0.642908
 H        -0.404253         2.006518         0.513208
 H        -0.347151         1.502129        -1.153310
