19
Iteration:  1777charge 0 multiplicity 1
 C        -2.942373        -1.350425         1.749222
 C        -1.787686        -0.481984         1.188908
 C        -2.037973         0.381857        -0.203369
 C        -1.668364        -0.915352        -1.075794
 C        -0.665825        -1.172222         0.125019
 O        -0.017745        -2.427727         0.162113
 C         0.301223         0.023114         0.239586
 O         1.479126        -0.063022         0.455422
 C        -0.629683         1.101882        -0.093768
 H        -3.532050        -2.122936         1.063385
 H        -2.645206        -1.831147         2.647682
 H        -3.818297        -0.785756         2.125564
 H        -1.310960         0.087388         1.939555
 H        -3.034162         0.862749        -0.391239
 H        -2.502552        -1.590333        -1.073478
 H        -1.426041        -0.751724        -2.105013
 H         0.907700        -2.329694         0.330845
 H        -0.675242         1.972913         0.598626
 H        -0.306471         1.409972        -1.037615
