19
Iteration:  1113
 C        -3.090090        -1.374171         1.479456
 C        -1.788957        -0.593172         1.188992
 C        -1.935182         0.307699         0.020813
 C        -1.642129        -0.826280        -0.949310
 C        -0.643648        -1.215924         0.237371
 O        -0.014902        -2.459930         0.387651
 C         0.307862         0.019980         0.078870
 O         1.506388         0.003243         0.193145
 C        -0.662698         1.229878        -0.098012
 H        -3.453721        -1.935558         0.621237
 H        -3.020777        -2.282742         2.003005
 H        -3.777383        -0.778014         2.074359
 H        -1.390757        -0.273232         2.191109
 H        -2.868160         0.904091        -0.057445
 H        -2.447740        -1.544299        -0.988984
 H        -1.354187        -0.615452        -2.030621
 H         0.813269        -2.293653         0.838526
 H        -0.541525         1.940423         0.742165
 H        -0.492262         1.722253        -1.049986
