19
Iteration:  4421
 C        -3.066679        -1.589414         1.352627
 C        -1.903823        -0.576481         1.183051
 C        -1.957098         0.412491        -0.035359
 C        -1.495471        -0.877634        -0.942897
 C        -0.697281        -1.108764         0.339911
 O        -0.099760        -2.303401         0.657459
 C         0.321838        -0.001328         0.153834
 O         1.537410        -0.080639         0.001544
 C        -0.638128         1.198765        -0.156759
 H        -3.654542        -1.868784         0.542794
 H        -2.627069        -2.396447         2.004815
 H        -3.780716        -1.093089         2.104565
 H        -1.768288        -0.098104         2.225960
 H        -2.944605         0.980576        -0.136665
 H        -2.316921        -1.526960        -1.109185
 H        -0.865837        -0.760339        -1.870228
 H         0.741473        -1.932266         0.461995
 H        -0.307604         1.873209         0.682596
 H        -0.371412         1.589772        -1.044772
