19
Iteration:  2330
 C        -2.822838        -1.430399         1.618848
 C        -1.637798        -0.588153         1.190959
 C        -1.921271         0.381940        -0.037582
 C        -1.736449        -0.791346        -1.036500
 C        -0.666567        -1.213749         0.081818
 O        -0.260821        -2.529587         0.317270
 C         0.309487         0.001770         0.087187
 O         1.455800         0.020359         0.434720
 C        -0.691635         1.227584        -0.126502
 H        -3.043152        -2.050185         0.718833
 H        -2.369333        -1.997313         2.428246
 H        -3.614101        -0.724424         1.972362
 H        -1.130679        -0.143673         2.008023
 H        -2.794219         1.131373        -0.052526
 H        -2.397573        -1.647739        -1.171857
 H        -1.302499        -0.482223        -1.989058
 H         0.672284        -2.549255         0.493819
 H        -0.663860         2.056759         0.586547
 H        -0.612664         1.612154        -1.224099
