19
Iteration:   256
 C        -3.025851        -1.476531         1.386021
 C        -1.825264        -0.549639         1.183102
 C        -1.983021         0.373142         0.034286
 C        -1.618408        -0.819423        -0.921101
 C        -0.703900        -1.173608         0.273404
 O        -0.066152        -2.405145         0.486666
 C         0.287332        -0.030683         0.042558
 O         1.536598        -0.026320         0.122390
 C        -0.595018         1.145710        -0.027162
 H        -3.655429        -1.715497         0.514752
 H        -2.591775        -2.420287         1.806167
 H        -3.646778        -0.978641         2.202771
 H        -1.569371         0.111908         2.054635
 H        -2.948783         0.944684        -0.141353
 H        -2.586263        -1.477687        -1.098934
 H        -1.157589        -0.578779        -1.969041
 H         0.937459        -2.118667         0.599823
 H        -0.398714         1.915607         0.744067
 H        -0.471333         1.702677        -0.972158
