19
Iteration:   440charge 0 multiplicity 1
 C        -3.051606        -1.319250         1.633830
 C        -1.838527        -0.575487         1.184308
 C        -1.955424         0.307392        -0.104967
 C        -1.536673        -0.846566        -1.049836
 C        -0.591045        -1.180279         0.196469
 O        -0.043152        -2.475549         0.356092
 C         0.279177         0.010140         0.103264
 O         1.479755        -0.031661         0.270843
 C        -0.712803         1.169278        -0.038134
 H        -3.694683        -1.704720         0.854934
 H        -3.010509        -2.224453         2.277077
 H        -3.672970        -0.631676         2.258544
 H        -1.388588        -0.024869         2.028983
 H        -2.893834         0.896814        -0.342462
 H        -2.224815        -1.643496        -1.328861
 H        -1.054673        -0.441903        -1.880373
 H         0.914954        -2.334622         0.491260
 H        -0.711975         1.979216         0.729701
 H        -0.496230         1.570319        -1.081656
