19
Iteration:  3344charge 0 multiplicity 1
 C        -3.024961        -1.517355         1.331363
 C        -1.806965        -0.510604         1.093387
 C        -1.955950         0.426365        -0.045793
 C        -1.598594        -0.871109        -0.984540
 C        -0.671709        -1.189080         0.336055
 O        -0.054483        -2.293634         0.743980
 C         0.276862        -0.019216         0.106272
 O         1.511542        -0.059243         0.067627
 C        -0.670091         1.144030        -0.124813
 H        -3.851752        -1.583347         0.635978
 H        -2.646357        -2.521027         1.437628
 H        -3.530079        -1.228310         2.228895
 H        -1.408783        -0.295964         2.130101
 H        -2.883563         0.864399        -0.360923
 H        -2.380262        -1.660858        -0.852948
 H        -1.238655        -0.629414        -1.998716
 H         0.958904        -2.202319         0.633797
 H        -0.519852         1.683779         0.800925
 H        -0.527307         1.781650        -1.040797
