19
Iteration:  4953charge 0 multiplicity 1
 C        -2.932316        -1.590583         1.520684
 C        -1.825117        -0.526838         1.080712
 C        -1.962199         0.443887        -0.196856
 C        -1.605126        -0.813508        -1.016719
 C        -0.718036        -1.150690         0.301884
 O        -0.091985        -2.298985         0.662452
 C         0.265986        -0.036677         0.140199
 O         1.492045        -0.092332         0.095726
 C        -0.638993         1.169090        -0.076245
 H        -3.372329        -2.158052         0.641700
 H        -2.625923        -2.320941         2.352881
 H        -3.773130        -0.989776         1.998182
 H        -1.485487        -0.061167         1.975415
 H        -2.992057         0.962064        -0.331369
 H        -2.206875        -1.633719        -0.966459
 H        -0.959985        -0.810179        -2.061792
 H         0.896310        -2.116249         0.557521
 H        -0.713928         1.793232         0.857413
 H        -0.313828         1.776421        -1.058659
