19
Iteration:  2653
 C        -2.914108        -1.538741         1.649586
 C        -1.790420        -0.530827         1.138407
 C        -1.988162         0.390333        -0.155219
 C        -1.677983        -0.790906        -1.112179
 C        -0.677484        -1.133716         0.266502
 O        -0.068243        -2.326819         0.465683
 C         0.252711        -0.054823         0.156694
 O         1.429281        -0.075221         0.454537
 C        -0.594936         1.170586        -0.339926
 H        -3.036050        -2.447422         1.024243
 H        -2.470799        -2.009255         2.589326
 H        -3.881480        -0.999322         1.857917
 H        -1.375237        -0.035756         2.059202
 H        -2.902274         0.861883        -0.285026
 H        -2.140674        -1.777385        -1.199014
 H        -1.160233        -0.552744        -2.110469
 H         0.828614        -2.266046         0.601912
 H        -0.577732         2.220994         0.049923
 H        -0.514822         1.411646        -1.410396
