19
Iteration:  4911charge 0 multiplicity 1
 C        -2.944397        -1.449688         1.520640
 C        -1.776760        -0.572593         1.218326
 C        -2.044573         0.371053        -0.157838
 C        -1.544121        -0.882559        -0.926392
 C        -0.658892        -1.144366         0.299073
 O        -0.105705        -2.391390         0.469225
 C         0.264066        -0.029647         0.134944
 O         1.491247        -0.021311         0.236552
 C        -0.698957         1.158072        -0.225868
 H        -3.025721        -2.030249         0.674139
 H        -2.832068        -2.132260         2.410726
 H        -3.772600        -0.722420         1.669524
 H        -1.361846         0.060805         1.968211
 H        -2.968105         1.013281        -0.457839
 H        -2.362364        -1.495087        -1.052952
 H        -0.977817        -0.643439        -1.830529
 H         0.835895        -2.210815         0.538620
 H        -0.495396         1.742272         0.707224
 H        -0.501740         1.728157        -1.132077
