19
Iteration:  3290
 C        -2.899639        -1.558977         1.469725
 C        -1.910468        -0.474434         1.105927
 C        -1.964103         0.330457        -0.128538
 C        -1.459387        -0.909439        -0.947582
 C        -0.688722        -1.090530         0.356833
 O        -0.204087        -2.333053         0.658042
 C         0.324441         0.102245         0.107057
 O         1.512884        -0.098046         0.031885
 C        -0.667790         1.201747        -0.020302
 H        -3.736058        -1.701457         0.589856
 H        -2.519117        -2.581762         1.644468
 H        -3.558201        -1.296656         2.296521
 H        -1.627870        -0.021732         2.078291
 H        -2.854431         0.808238        -0.549368
 H        -2.216495        -1.704863        -1.113303
 H        -0.877983        -0.880295        -1.890660
 H         0.677360        -2.530588         0.166854
 H        -0.810219         2.059897         0.621161
 H        -0.364543         1.654591        -1.053282
