19
Iteration:  2999charge 0 multiplicity 1
 C        -2.971971        -1.521543         1.380282
 C        -1.879159        -0.504872         1.129546
 C        -1.952256         0.285459        -0.118400
 C        -1.427675        -0.958852        -0.892211
 C        -0.652360        -1.102866         0.481501
 O        -0.217306        -2.450973         0.635238
 C         0.303040         0.117613         0.229243
 O         1.473312         0.026596        -0.043095
 C        -0.625372         1.242048        -0.187064
 H        -3.977701        -1.083479         1.115580
 H        -2.942549        -2.332894         0.782542
 H        -2.945268        -1.820283         2.390491
 H        -1.716360         0.109583         2.037523
 H        -2.818795         0.827621        -0.449050
 H        -2.204018        -1.751864        -0.884144
 H        -0.865899        -0.855590        -1.831210
 H         0.756942        -2.567581         0.842617
 H        -0.701672         2.055732         0.527529
 H        -0.348211         1.642708        -1.139814
