19
Iteration:  2378
 C        -2.831539        -1.570293         1.625771
 C        -1.818470        -0.455721         1.188334
 C        -2.023330         0.459306        -0.109160
 C        -1.635595        -0.818976        -0.984746
 C        -0.718092        -1.131625         0.200077
 O        -0.124238        -2.474286         0.291511
 C         0.269049         0.050563         0.198692
 O         1.482204        -0.135752         0.319090
 C        -0.616510         1.206676        -0.140066
 H        -3.688049        -1.312940         0.945319
 H        -2.418715        -2.547435         1.556466
 H        -3.068172        -1.284151         2.624085
 H        -1.444856         0.173809         2.085738
 H        -3.059285         0.793999        -0.329028
 H        -2.575257        -1.399057        -1.195551
 H        -1.175072        -0.721889        -2.005239
 H         0.864038        -2.263615         0.586253
 H        -0.389223         2.095130         0.491747
 H        -0.416731         1.457215        -1.136450
