19
Iteration:  2935
 C        -2.872440        -1.419853         1.593810
 C        -1.880556        -0.456457         1.072744
 C        -1.949752         0.354704        -0.301287
 C        -1.591875        -1.012530        -0.982582
 C        -0.679321        -1.195402         0.177221
 O        -0.034672        -2.360826         0.532168
 C         0.224495         0.020554         0.221803
 O         1.430013        -0.022975         0.431877
 C        -0.647050         1.191842        -0.275032
 H        -3.451072        -0.905782         2.463935
 H        -3.577085        -1.635180         0.791950
 H        -2.506294        -2.363146         2.063951
 H        -1.423404         0.017055         1.927781
 H        -2.917211         0.779119        -0.416948
 H        -2.484539        -1.660187        -0.802264
 H        -1.219698        -1.195109        -1.993437
 H         0.943710        -2.190159         0.274048
 H        -0.828448         1.986657         0.520324
 H        -0.238290         1.629942        -1.189287
