19
Iteration:  3995
 C        -2.833258        -1.449714         1.727796
 C        -1.806057        -0.482748         1.106768
 C        -2.039965         0.358571        -0.252032
 C        -1.617435        -0.897159        -1.053980
 C        -0.658603        -1.176991         0.111519
 O        -0.132079        -2.385749         0.403892
 C         0.306456         0.036722         0.127497
 O         1.465320        -0.081429         0.572863
 C        -0.682998         1.174666        -0.297578
 H        -3.606316        -1.886805         1.104536
 H        -2.294189        -2.291020         2.123903
 H        -3.436783        -0.970509         2.500340
 H        -1.343117         0.065748         1.961538
 H        -3.018619         0.855349        -0.468889
 H        -2.357644        -1.778763        -1.134987
 H        -1.157673        -0.696380        -2.045983
 H         0.819990        -2.003833         0.550046
 H        -0.670852         1.954470         0.488972
 H        -0.421630         1.579318        -1.203989
