19
Iteration:  2433
 C        -3.002038        -1.389122         1.481113
 C        -1.796657        -0.552987         1.116459
 C        -1.945781         0.415214        -0.058371
 C        -1.671570        -0.865603        -1.013569
 C        -0.672301        -1.200322         0.201184
 O        -0.006126        -2.470260         0.513800
 C         0.270311         0.006226         0.136185
 O         1.492322        -0.028696         0.097163
 C        -0.655649         1.151217         0.038198
 H        -3.930340        -0.675046         1.591505
 H        -3.176139        -2.183688         0.743171
 H        -2.830170        -1.839014         2.446339
 H        -1.300796        -0.217233         2.090218
 H        -2.852859         1.004615        -0.229926
 H        -2.552489        -1.548586        -0.995776
 H        -1.369396        -0.573503        -2.074712
 H         0.938021        -2.200303         0.687075
 H        -0.691815         1.724312         1.032691
 H        -0.458753         1.825243        -0.747056
