19
Iteration:  2423
 C        -3.017222        -1.400699         1.576545
 C        -1.800461        -0.563925         1.110197
 C        -2.020211         0.390952        -0.076619
 C        -1.649765        -0.818307        -1.021910
 C        -0.644889        -1.260159         0.184180
 O        -0.016457        -2.387669         0.485551
 C         0.279896        -0.072799         0.102827
 O         1.499297        -0.084937         0.147173
 C        -0.628993         1.262657         0.024975
 H        -4.061336        -0.961823         1.397385
 H        -3.047497        -2.322261         0.898761
 H        -2.898927        -1.787429         2.581873
 H        -1.214005        -0.061967         2.029364
 H        -2.978721         0.895320        -0.152059
 H        -2.431643        -1.592671        -1.185003
 H        -1.276089        -0.563610        -2.114859
 H         0.914560        -2.177321         0.593423
 H        -0.751800         1.910085         0.937979
 H        -0.331153         1.880799        -0.776809
