19
Iteration:  1130charge 0 multiplicity 1
 C        -3.011189        -1.384222         1.430230
 C        -1.707158        -0.541622         1.222682
 C        -2.079034         0.430928        -0.059946
 C        -1.640342        -0.919399        -0.824674
 C        -0.576604        -1.182858         0.193307
 O        -0.091454        -2.480284         0.297171
 C         0.333723         0.011551         0.154958
 O         1.534147         0.011805         0.255491
 C        -0.701734         1.157265        -0.084393
 H        -3.681745        -1.765867         0.528150
 H        -2.877438        -2.303226         2.194863
 H        -3.637152        -0.571584         1.898974
 H        -1.441967        -0.065867         2.161507
 H        -2.996478         1.011522        -0.155576
 H        -2.360435        -1.759885        -0.926278
 H        -1.291599        -0.950138        -1.867823
 H         0.898555        -2.345576         0.518377
 H        -0.567459         1.913919         0.698065
 H        -0.666972         1.586065        -1.141920
