19
Iteration:  2284
 C        -2.993633        -1.500444         1.748468
 C        -1.840975        -0.447225         1.166178
 C        -1.963836         0.354778        -0.105139
 C        -1.641209        -0.854300        -1.019254
 C        -0.709135        -1.173375         0.155543
 O        -0.029912        -2.324978         0.185592
 C         0.285800         0.000171         0.192018
 O         1.514612        -0.183494         0.272354
 C        -0.650361         1.188729        -0.075036
 H        -3.068010        -2.373296         1.174238
 H        -2.546795        -1.690401         2.844066
 H        -3.966685        -0.941396         1.941516
 H        -1.382221         0.089577         1.968469
 H        -2.830027         1.013108        -0.227356
 H        -2.656587        -1.248498        -0.973325
 H        -1.277912        -0.842490        -2.069966
 H         0.863349        -2.160719         0.508323
 H        -0.643525         1.774006         0.856814
 H        -0.219939         1.803711        -0.975766
