19
Iteration:  4131charge 0 multiplicity 1
 C        -2.976105        -1.611984         1.462770
 C        -1.938089        -0.525054         1.116261
 C        -1.925598         0.444613        -0.149169
 C        -1.539340        -0.808481        -1.063367
 C        -0.623223        -1.123757         0.316918
 O        -0.106187        -2.338036         0.685442
 C         0.291417         0.045388         0.171159
 O         1.486174        -0.172994         0.006586
 C        -0.676865         1.252001        -0.014952
 H        -3.117790        -2.360219         0.615118
 H        -2.503149        -2.199680         2.271719
 H        -3.968722        -1.194876         1.660239
 H        -1.461573        -0.091164         1.971621
 H        -2.846869         1.029233        -0.286507
 H        -2.335406        -1.535880        -1.271551
 H        -0.871294        -0.647361        -2.011606
 H         0.806978        -2.490763         1.105906
 H        -0.733150         1.836918         0.848807
 H        -0.531238         1.874071        -0.913226
