19
Iteration:   501
 C        -2.971841        -1.496108         1.471790
 C        -1.817242        -0.587395         1.121498
 C        -2.034922         0.436379        -0.043694
 C        -1.700242        -0.823002        -0.964511
 C        -0.670945        -1.188775         0.246484
 O        -0.093497        -2.362431         0.586201
 C         0.340045        -0.030901         0.081334
 O         1.567509        -0.063594         0.127408
 C        -0.625874         1.193679        -0.069635
 H        -3.257978        -2.209439         0.637074
 H        -2.828737        -2.024847         2.416415
 H        -3.748280        -0.719252         1.471259
 H        -1.483662        -0.295562         2.140033
 H        -3.033421         0.908714        -0.191040
 H        -2.398756        -1.707220        -1.286952
 H        -1.174240        -0.399654        -1.871565
 H         0.889932        -2.401823         0.281859
 H        -0.522912         1.790063         0.848967
 H        -0.385830         1.942006        -0.841541
