19
Iteration:  4768
 C        -2.927290        -1.447699         1.538489
 C        -1.805050        -0.502983         1.138303
 C        -2.011136         0.417533        -0.104173
 C        -1.528230        -0.849410        -1.003664
 C        -0.605962        -1.215977         0.185718
 O        -0.143375        -2.467765         0.568857
 C         0.277545        -0.014971         0.119319
 O         1.468791        -0.019884         0.298870
 C        -0.724491         1.219786        -0.205848
 H        -3.395578        -1.998165         0.714980
 H        -2.307263        -2.139601         2.168364
 H        -3.714144        -1.062358         2.197263
 H        -1.376120         0.046456         2.086385
 H        -3.000874         0.959215        -0.310471
 H        -2.242850        -1.729293        -1.026475
 H        -1.087956        -0.623094        -2.078972
 H         0.875849        -2.422502         0.394082
 H        -0.612926         2.111710         0.374453
 H        -0.587118         1.498567        -1.274710
