19
Iteration:   292charge 0 multiplicity 1
 C        -3.074934        -1.371131         1.458605
 C        -1.755197        -0.688435         1.219778
 C        -1.968350         0.320385         0.022111
 C        -1.611582        -0.849481        -0.924700
 C        -0.663766        -1.241560         0.281736
 O        -0.073905        -2.450696         0.376297
 C         0.317945         0.114240         0.167419
 O         1.575744         0.004563         0.245575
 C        -0.688617         1.220151        -0.182705
 H        -3.708353        -1.773217         0.636839
 H        -3.153114        -2.167145         2.205876
 H        -3.634765        -0.495059         1.952915
 H        -1.534231        -0.139132         2.150118
 H        -2.928192         0.712499        -0.061094
 H        -2.456403        -1.408734        -1.076581
 H        -1.151355        -0.559484        -1.962597
 H         0.698160        -2.510996        -0.335104
 H        -0.514730         2.200270         0.398902
 H        -0.437803         1.339678        -1.219650
