19
Iteration:  4962charge 0 multiplicity 1
 C        -2.960328        -1.539304         1.476248
 C        -1.852213        -0.489420         1.180643
 C        -1.964287         0.392458        -0.182533
 C        -1.568187        -0.910897        -1.059810
 C        -0.696806        -1.121770         0.309207
 O        -0.094460        -2.331777         0.672203
 C         0.272329        -0.035278         0.056656
 O         1.491500        -0.099309         0.103413
 C        -0.689047         1.204406        -0.039710
 H        -3.257633        -2.188982         0.560022
 H        -2.360813        -2.234880         2.079985
 H        -3.695228        -1.057204         2.072367
 H        -1.433415         0.089197         2.008512
 H        -2.772353         1.102671        -0.192691
 H        -2.362657        -1.574410        -1.126553
 H        -0.965896        -0.675354        -2.016789
 H         0.885604        -2.077552         0.498164
 H        -0.692133         1.742422         0.889323
 H        -0.335491         1.881309        -0.929928
