19
Iteration:  4661
 C        -3.043631        -1.521656         1.466355
 C        -1.812868        -0.543261         1.147240
 C        -1.963338         0.410458        -0.138285
 C        -1.601590        -0.825736        -0.960725
 C        -0.666207        -1.157200         0.388376
 O        -0.056022        -2.420558         0.595057
 C         0.282481        -0.010318         0.109826
 O         1.505767        -0.053320         0.164987
 C        -0.647326         1.202731        -0.226205
 H        -3.121313        -2.157116         0.673768
 H        -2.726732        -2.310182         2.219761
 H        -3.888036        -0.915355         1.882221
 H        -1.439382         0.006377         1.994597
 H        -2.882623         1.074496        -0.209428
 H        -2.475423        -1.554133        -1.170468
 H        -1.083980        -0.579694        -1.868278
 H         0.873091        -2.235281         0.456725
 H        -0.703595         1.969083         0.679919
 H        -0.450834         1.734974        -1.115965
