19
Iteration:  3192
 C        -2.867888        -1.427718         1.733315
 C        -1.871618        -0.280772         1.189748
 C        -1.967556         0.345412        -0.285913
 C        -1.663458        -1.025780        -1.002395
 C        -0.696059        -1.175973         0.154036
 O        -0.010276        -2.398970         0.253987
 C         0.264390         0.031940         0.200842
 O         1.424603        -0.040728         0.545378
 C        -0.639423         1.070201        -0.243739
 H        -2.813942        -2.377175         1.035147
 H        -2.709684        -1.760688         2.793008
 H        -3.913502        -1.142004         1.836609
 H        -1.415934         0.262241         1.984314
 H        -2.639880         1.114027        -0.660081
 H        -2.525694        -1.661325        -0.907801
 H        -1.379367        -0.971655        -2.043789
 H         0.957282        -2.303833         0.111854
 H        -0.631210         1.904046         0.464521
 H        -0.394179         1.637998        -1.210210
