19
Iteration:  3714
 C        -2.982097        -1.335532         1.645984
 C        -1.791838        -0.548780         1.175136
 C        -1.951508         0.358368        -0.133025
 C        -1.660817        -0.912512        -0.964632
 C        -0.692036        -1.244957         0.184280
 O        -0.013484        -2.473445         0.289458
 C         0.267582         0.028615         0.161864
 O         1.442668         0.054934         0.490404
 C        -0.629230         1.144744        -0.268960
 H        -3.203829        -2.122484         0.918042
 H        -2.763725        -1.949234         2.634841
 H        -3.802960        -0.566393         1.657835
 H        -1.377389         0.112368         2.092414
 H        -2.926114         0.825105        -0.453642
 H        -2.625356        -1.529593        -1.029265
 H        -1.144350        -0.985842        -1.868743
 H         0.906101        -2.164933         0.323284
 H        -0.501099         2.227441         0.120169
 H        -0.283093         1.083288        -1.334233
