19
Iteration:  4523
 C        -2.933041        -1.323128         1.613928
 C        -1.760958        -0.467700         1.193688
 C        -1.961290         0.337648        -0.140187
 C        -1.627872        -0.892716        -1.007471
 C        -0.624774        -1.208518         0.173385
 O        -0.028432        -2.410260         0.321204
 C         0.210651        -0.019458         0.172778
 O         1.410016        -0.036010         0.414942
 C        -0.667838         1.102178        -0.220759
 H        -3.124947        -2.108050         0.847064
 H        -2.747414        -2.026047         2.458175
 H        -3.766394        -0.686026         1.894765
 H        -1.259821         0.029528         2.029578
 H        -2.893295         0.852316        -0.175967
 H        -2.527051        -1.529910        -1.067712
 H        -1.132819        -0.907515        -1.911637
 H         0.775606        -2.086364         0.726311
 H        -0.777359         1.993169         0.393559
 H        -0.404336         1.382131        -1.257381
