19
Iteration:  1328
 C        -3.054895        -1.562701         1.599829
 C        -1.932256        -0.615164         1.170382
 C        -1.986140         0.420344        -0.129776
 C        -1.523733        -0.764002        -1.094706
 C        -0.688165        -1.189241         0.221215
 O         0.015084        -2.327676         0.523109
 C         0.266836         0.012468         0.135064
 O         1.487622        -0.201633         0.135884
 C        -0.635513         1.251205        -0.061679
 H        -3.494749        -2.149714         0.773620
 H        -2.684276        -2.139370         2.467915
 H        -3.608212        -0.860676         2.157616
 H        -1.487996        -0.055341         2.096698
 H        -2.886787         1.038480        -0.273942
 H        -2.465370        -1.286012        -1.120533
 H        -1.044848        -0.383946        -2.029199
 H         0.924711        -2.008778         0.574707
 H        -0.419702         1.950164         0.827059
 H        -0.364129         1.833381        -0.967497
