19
Iteration:  4161
 C        -3.039070        -1.542483         1.378765
 C        -1.872613        -0.563744         1.197848
 C        -1.949517         0.378937        -0.136348
 C        -1.527795        -0.824182        -0.985292
 C        -0.636197        -1.102486         0.419791
 O        -0.063541        -2.326880         0.642629
 C         0.275894         0.008138         0.196989
 O         1.463109        -0.090915         0.005470
 C        -0.641103         1.159263        -0.097724
 H        -3.350871        -1.856030         0.447452
 H        -2.781502        -2.340799         2.109163
 H        -3.940765        -1.052517         1.715745
 H        -1.637897        -0.107760         2.245358
 H        -2.903102         1.013639        -0.314989
 H        -2.178450        -1.596226        -1.331341
 H        -0.825746        -0.515773        -1.821713
 H         0.824710        -2.439209         0.205879
 H        -0.618720         1.888820         0.808064
 H        -0.429738         1.644230        -0.977426
