19
Iteration:  4643charge 0 multiplicity 1
 C        -2.885266        -1.498489         1.473519
 C        -1.900234        -0.441398         1.179373
 C        -1.971790         0.383928        -0.117665
 C        -1.604967        -0.877603        -0.963268
 C        -0.635447        -1.215185         0.177861
 O        -0.151114        -2.394174         0.592903
 C         0.280897         0.000512         0.078914
 O         1.500057         0.003331         0.222997
 C        -0.628250         1.161567        -0.112291
 H        -3.419963        -1.997646         0.591441
 H        -2.500249        -2.210119         2.228316
 H        -3.819568        -1.024008         1.903793
 H        -1.442023        -0.072031         2.214298
 H        -2.863810         0.836904        -0.490178
 H        -2.414084        -1.688544        -1.064923
 H        -1.189578        -0.924625        -2.105163
 H         0.793764        -2.196387         0.637121
 H        -0.341459         1.886972         0.665981
 H        -0.381843         1.601332        -1.088661
