19
Iteration:  2470charge 0 multiplicity 1
 C        -3.077899        -1.450522         1.461517
 C        -1.846472        -0.572825         1.267297
 C        -1.955958         0.373894        -0.016095
 C        -1.473683        -0.840068        -0.949299
 C        -0.638707        -1.130017         0.299554
 O        -0.150425        -2.495530         0.499204
 C         0.328041         0.115926         0.186907
 O         1.541247        -0.042356         0.005950
 C        -0.716975         1.176691        -0.102373
 H        -3.707826        -1.140168         2.223862
 H        -3.849440        -1.525770         0.549544
 H        -2.699175        -2.499193         1.696741
 H        -1.457531        -0.126175         2.333920
 H        -2.788333         1.038989        -0.237033
 H        -2.089293        -1.732128        -1.180043
 H        -0.950374        -0.591271        -1.967865
 H         0.842949        -2.388158         0.297167
 H        -0.510237         1.897224         0.671450
 H        -0.598217         1.709026        -1.099733
