19
Iteration:  1029charge 0 multiplicity 1
 C        -2.849130        -1.609033         1.463973
 C        -1.791367        -0.556295         1.145453
 C        -1.969930         0.464940        -0.037584
 C        -1.642858        -0.800183        -1.005031
 C        -0.669469        -1.172724         0.246705
 O        -0.228324        -2.481965         0.505606
 C         0.284496         0.034873         0.164963
 O         1.520502         0.011674         0.149790
 C        -0.645048         1.181735        -0.120174
 H        -3.195010        -2.185963         0.632131
 H        -2.323141        -2.076780         2.361652
 H        -3.768681        -1.021784         1.901473
 H        -1.513120        -0.216201         2.143015
 H        -2.817328         1.205285        -0.247266
 H        -2.571247        -1.343410        -1.177838
 H        -1.021731        -0.571972        -1.825051
 H         0.593181        -2.281278         1.022431
 H        -0.394558         1.918221         0.673690
 H        -0.401956         1.689600        -1.134888
