19
Iteration:  2402charge 0 multiplicity 1
 C        -2.946726        -1.502303         1.647628
 C        -1.850983        -0.548063         1.150669
 C        -1.970514         0.416155        -0.074365
 C        -1.531611        -0.804229        -1.032366
 C        -0.692917        -1.109392         0.264927
 O        -0.062698        -2.342481         0.366835
 C         0.269221         0.059495         0.141562
 O         1.452803        -0.220466         0.239902
 C        -0.661485         1.144832        -0.111542
 H        -3.878186        -1.113118         1.272273
 H        -2.803847        -2.590341         1.322086
 H        -2.903266        -1.420775         2.727042
 H        -1.259487        -0.179149         2.089526
 H        -2.808043         1.005074        -0.396043
 H        -2.371370        -1.456416        -1.315522
 H        -1.173454        -0.457056        -2.061791
 H         0.835254        -2.138271         0.259090
 H        -0.712909         1.874379         0.696121
 H        -0.680732         1.713476        -0.998822
