19
Iteration:  4081charge 0 multiplicity 1
 C        -2.983168        -1.485479         1.544718
 C        -1.793499        -0.588382         1.198750
 C        -1.945088         0.382722        -0.197586
 C        -1.597473        -0.832061        -0.992576
 C        -0.699072        -1.203608         0.286593
 O        -0.144400        -2.536284         0.500287
 C         0.318648         0.059820         0.162900
 O         1.515562         0.077122         0.277542
 C        -0.648031         1.227667        -0.201147
 H        -3.136860        -2.252454         0.747378
 H        -2.783487        -2.069791         2.423643
 H        -3.818238        -0.754732         1.717657
 H        -1.551766         0.115740         2.023424
 H        -2.919990         0.833599        -0.344481
 H        -2.388312        -1.607500        -1.076933
 H        -1.179171        -0.636170        -1.917062
 H         0.728919        -2.601941         0.165641
 H        -0.466480         2.047863         0.583169
 H        -0.384828         1.657513        -1.241459
