19
Iteration:   377charge 0 multiplicity 1
 C        -2.732051        -1.572757         1.595336
 C        -1.795373        -0.469318         1.152435
 C        -1.986717         0.427535        -0.119849
 C        -1.591236        -0.794621        -1.016401
 C        -0.729512        -1.129720         0.231951
 O        -0.280426        -2.424688         0.375185
 C         0.329020        -0.011577         0.098400
 O         1.475998        -0.096581         0.475589
 C        -0.708501         1.173188        -0.262599
 H        -3.047276        -2.093864         0.708072
 H        -2.050833        -2.056266         2.274128
 H        -3.647224        -1.304845         2.196431
 H        -1.411732         0.071581         2.084068
 H        -2.827225         1.097264        -0.267474
 H        -2.315701        -1.568962        -1.221670
 H        -0.994822        -0.500337        -1.999063
 H         0.653149        -2.241315         0.481712
 H        -0.474726         2.045845         0.410263
 H        -0.585188         1.529466        -1.285077
