19
Iteration:  4899
 C        -2.931113        -1.380781         1.485361
 C        -1.740566        -0.489841         1.190911
 C        -1.950167         0.297942        -0.144198
 C        -1.631904        -0.924444        -0.935672
 C        -0.647215        -1.181323         0.261052
 O        -0.093275        -2.417957         0.419400
 C         0.258377         0.058231         0.099669
 O         1.443968         0.013148         0.286430
 C        -0.656661         1.134042        -0.126732
 H        -3.377536        -2.057752         0.820064
 H        -2.755947        -1.945942         2.448728
 H        -3.839373        -0.781538         1.719407
 H        -1.503124        -0.137414         2.144725
 H        -3.003535         0.719645        -0.343138
 H        -2.257630        -1.709413        -0.989041
 H        -1.296647        -0.809353        -1.995744
 H         0.842515        -2.399780         0.625557
 H        -0.657745         1.989162         0.563487
 H        -0.303412         1.560052        -1.112644
