19
Iteration:  2842
 C        -2.850116        -1.423146         1.616128
 C        -1.803666        -0.480164         1.141850
 C        -2.032939         0.326907        -0.237515
 C        -1.450099        -0.955508        -1.015732
 C        -0.572661        -1.178636         0.194858
 O        -0.249429        -2.463369         0.492987
 C         0.284514         0.024824         0.148444
 O         1.472170         0.075282         0.455532
 C        -0.741177         1.155977        -0.268885
 H        -3.334827        -0.918166         2.413147
 H        -3.627951        -1.576387         0.794137
 H        -2.476273        -2.352003         2.044429
 H        -1.685410         0.414181         1.837256
 H        -3.060638         0.746979        -0.450217
 H        -2.221544        -1.756111        -1.187974
 H        -0.964414        -0.847742        -2.031187
 H         0.768350        -2.485511         0.632670
 H        -0.718604         2.084722         0.276824
 H        -0.386184         1.371492        -1.306136
