19
Iteration:   240
 C        -2.897958        -1.527225         1.488147
 C        -1.804738        -0.528504         1.156433
 C        -2.048136         0.409868        -0.132521
 C        -1.626786        -0.835409        -1.023047
 C        -0.657454        -1.133570         0.231267
 O        -0.122942        -2.353634         0.526623
 C         0.313407         0.034521         0.149333
 O         1.527690        -0.191922         0.077386
 C        -0.680510         1.267079         0.025197
 H        -3.534427        -1.579399         0.601400
 H        -2.497758        -2.484609         1.825539
 H        -3.552765        -1.192406         2.253591
 H        -1.341757        -0.133720         2.071275
 H        -2.959576         0.936509        -0.292266
 H        -2.259424        -1.652560        -1.131371
 H        -1.195679        -0.587758        -1.936356
 H         0.680233        -2.360228         1.057351
 H        -0.727085         1.659050         1.042012
 H        -0.395759         1.996217        -0.761153
