19
Iteration:   463
 C        -3.019632        -1.338959         1.580221
 C        -1.887449        -0.547155         1.147757
 C        -1.985085         0.383329        -0.159403
 C        -1.478408        -0.930451        -0.942114
 C        -0.717586        -1.207918         0.252843
 O         0.046643        -2.399360         0.279847
 C         0.238988        -0.047555         0.345247
 O         1.436628        -0.107754         0.099462
 C        -0.675877         1.264426        -0.044312
 H        -3.581100        -1.937984         0.897659
 H        -2.815440        -2.130931         2.363805
 H        -3.753921        -0.686254         2.190201
 H        -1.513418         0.137416         1.937503
 H        -2.968392         0.819205        -0.400138
 H        -2.191769        -1.649489        -1.142192
 H        -0.837616        -0.727585        -1.806904
 H         0.857796        -2.155505         0.856308
 H        -0.544695         1.862396         0.921286
 H        -0.217704         1.782828        -0.921948
