19
Iteration:  1586
 C        -2.998729        -1.434664         1.455000
 C        -1.820084        -0.592104         1.239074
 C        -2.034851         0.363016        -0.039333
 C        -1.549256        -0.756292        -1.015098
 C        -0.622167        -1.147474         0.303235
 O        -0.040778        -2.432838         0.465043
 C         0.279284         0.021531         0.156778
 O         1.478762        -0.105091         0.134055
 C        -0.661447         1.194723        -0.123097
 H        -3.656694        -1.706167         0.655068
 H        -2.850900        -2.428842         2.104728
 H        -3.715900        -0.827100         2.237643
 H        -1.620433        -0.097958         2.242683
 H        -3.062190         0.775963        -0.055428
 H        -2.319315        -1.521880        -1.238440
 H        -0.969922        -0.364741        -1.913036
 H         0.924037        -2.375946         0.416820
 H        -0.569676         1.988663         0.566686
 H        -0.410108         1.491109        -1.182872
