19
Iteration:  3452
 C        -2.760944        -1.434562         1.617675
 C        -1.763985        -0.382232         1.199354
 C        -1.947121         0.358121        -0.215733
 C        -1.682377        -0.883404        -1.028385
 C        -0.639447        -1.220956         0.109481
 O        -0.196421        -2.452696         0.386928
 C         0.240825        -0.008894         0.167511
 O         1.408847         0.035758         0.574928
 C        -0.657416         1.086670        -0.302015
 H        -2.427721        -2.297881         1.144497
 H        -2.533957        -1.713718         2.770873
 H        -3.882090        -1.295441         1.507619
 H        -1.374465         0.351421         1.949432
 H        -2.846671         0.963314        -0.403007
 H        -2.475270        -1.698146        -1.100209
 H        -1.232542        -0.815892        -2.082547
 H         0.775671        -2.281126         0.355481
 H        -0.569235         1.937729         0.352732
 H        -0.449374         1.459010        -1.311102
