19
Iteration:  3325charge 0 multiplicity 1
 C        -2.910309        -1.578939         1.399202
 C        -1.913044        -0.524792         1.163670
 C        -2.029626         0.352756        -0.147286
 C        -1.638064        -0.776613        -1.046924
 C        -0.672506        -1.162245         0.321173
 O        -0.076875        -2.378590         0.814460
 C         0.288263         0.027378         0.080749
 O         1.524156        -0.084799         0.003407
 C        -0.596351         1.205139        -0.049833
 H        -3.669466        -1.378265         0.395980
 H        -2.515643        -2.572081         1.338034
 H        -3.515744        -1.473973         2.320908
 H        -1.651137         0.072341         2.043331
 H        -2.865301         1.008764        -0.208665
 H        -2.446354        -1.498213        -1.310036
 H        -0.968661        -0.562466        -1.825028
 H         0.874551        -2.116391         1.053352
 H        -0.724745         2.022576         0.690411
 H        -0.148929         1.511354        -1.088828
