19
Iteration:  4529
 C        -2.926499        -1.310603         1.606048
 C        -1.709382        -0.487523         1.186330
 C        -1.950565         0.317429        -0.167670
 C        -1.673295        -0.910864        -0.915025
 C        -0.712808        -1.193111         0.170517
 O        -0.002173        -2.387124         0.304050
 C         0.231370        -0.049176         0.147850
 O         1.401294        -0.028457         0.452442
 C        -0.683101         1.122810        -0.257559
 H        -3.176315        -2.043078         0.760578
 H        -2.727583        -2.031713         2.394836
 H        -3.861078        -0.738160         1.815329
 H        -1.061725         0.026008         1.969539
 H        -2.948424         0.838067        -0.255000
 H        -2.511636        -1.623880        -1.088303
 H        -1.095813        -0.795025        -1.944113
 H         0.814324        -2.178248         0.820417
 H        -0.576211         1.912206         0.548392
 H        -0.286824         1.528774        -1.230671
