19
Iteration:  1543
 C        -2.835126        -1.491339         1.702407
 C        -1.823294        -0.447121         0.991446
 C        -2.020654         0.394014        -0.273417
 C        -1.664152        -0.859809        -1.051691
 C        -0.568542        -1.208308         0.155090
 O        -0.258278        -2.518932         0.391172
 C         0.289814        -0.000858         0.173096
 O         1.503180         0.053458         0.304354
 C        -0.633598         1.177130         0.059624
 H        -3.196014        -2.244655         1.083644
 H        -1.965723        -1.937429         2.350927
 H        -3.787936        -0.970381         2.196548
 H        -1.443518         0.129582         1.826061
 H        -2.818550         1.075048        -0.633572
 H        -2.392769        -1.699396        -1.142398
 H        -1.119895        -0.609612        -2.012452
 H         0.633045        -2.476634         0.936740
 H        -0.742029         1.653764         0.997415
 H        -0.160456         1.875918        -0.678129
