19
Iteration:  1088charge 0 multiplicity 1
 C        -3.025947        -1.496188         1.605235
 C        -1.790851        -0.594022         1.134851
 C        -1.980926         0.418183        -0.087137
 C        -1.548320        -0.776717        -1.034872
 C        -0.701159        -1.195653         0.226796
 O        -0.028611        -2.355252         0.491112
 C         0.239316        -0.051071         0.154810
 O         1.470955        -0.075319         0.117297
 C        -0.659999         1.201594        -0.026617
 H        -3.558455        -2.045839         0.788577
 H        -2.966690        -2.411337         2.161757
 H        -3.650875        -0.809632         2.132003
 H        -1.379719        -0.165720         2.050856
 H        -2.870990         0.982480        -0.225704
 H        -2.371928        -1.398470        -1.441710
 H        -0.894913        -0.558134        -1.947815
 H         0.895680        -2.165006         0.305168
 H        -0.578145         1.899114         0.815329
 H        -0.221731         1.600898        -0.910777
