19
Iteration:    54charge 0 multiplicity 1
 C        -2.815349        -1.519958         1.557372
 C        -1.680539        -0.576906         1.125350
 C        -2.018865         0.465841        -0.054618
 C        -1.749881        -0.831341        -1.016826
 C        -0.683337        -1.166730         0.180318
 O        -0.280699        -2.485237         0.358211
 C         0.349671         0.008635         0.101725
 O         1.544096         0.017915         0.369457
 C        -0.620497         1.219807        -0.153933
 H        -2.569916        -2.584023         1.618517
 H        -3.136002        -1.343024         2.575413
 H        -3.719779        -1.513236         0.932639
 H        -1.104857        -0.136085         1.975388
 H        -2.932696         1.086969         0.037522
 H        -2.502692        -1.639593        -1.010251
 H        -1.334780        -0.618107        -2.029126
 H         0.551147        -2.420654         0.928216
 H        -0.448491         1.895012         0.737248
 H        -0.527351         1.673601        -1.146427
