19
Iteration:   470
 C        -3.023346        -1.399843         1.597356
 C        -1.920695        -0.488992         1.161519
 C        -1.955595         0.399231        -0.163910
 C        -1.522263        -0.962051        -0.958607
 C        -0.631482        -1.180473         0.255813
 O         0.037212        -2.388386         0.317347
 C         0.231597         0.002437         0.236988
 O         1.422622        -0.135798         0.096392
 C        -0.632086         1.256624         0.047310
 H        -3.592097        -1.891737         0.771976
 H        -2.891968        -2.060719         2.473458
 H        -3.852924        -0.835244         1.982110
 H        -1.577997         0.024178         2.053115
 H        -2.926004         0.862554        -0.517904
 H        -2.238327        -1.862068        -1.210198
 H        -0.947127        -0.693519        -1.822759
 H         0.863189        -2.244639         0.723950
 H        -0.701661         1.977525         0.819148
 H        -0.177463         1.698448        -0.878921
