19
Iteration:  1049
 C        -2.853597        -1.626232         1.522967
 C        -1.849845        -0.470183         1.136013
 C        -1.977956         0.393830        -0.168234
 C        -1.560897        -0.821941        -0.980884
 C        -0.688716        -1.137752         0.245693
 O        -0.222367        -2.361038         0.500246
 C         0.279657        -0.033652         0.104574
 O         1.510634        -0.095976         0.119248
 C        -0.628868         1.239204         0.040445
 H        -3.088967        -2.016226         0.493029
 H        -2.322875        -2.331252         2.269724
 H        -3.770303        -1.113457         2.073030
 H        -1.413114         0.129117         1.970814
 H        -2.982152         0.904434        -0.224794
 H        -2.302174        -1.598004        -0.944300
 H        -1.139594        -0.639722        -1.982158
 H         0.706120        -2.332903         0.663482
 H        -0.740966         1.955653         0.903813
 H        -0.334213         1.947793        -0.807121
