19
Iteration:  1360charge 0 multiplicity 1
 C        -2.832877        -1.535218         1.317623
 C        -1.811459        -0.496404         1.160366
 C        -2.012066         0.411072         0.007515
 C        -1.610532        -0.833384        -0.935640
 C        -0.692250        -1.139945         0.279978
 O        -0.162770        -2.323876         0.580505
 C         0.287196        -0.018618         0.148894
 O         1.483814        -0.131343         0.112726
 C        -0.650963         1.160201        -0.106549
 H        -3.351525        -2.006757         0.494186
 H        -2.451121        -2.309993         2.042017
 H        -3.748014        -1.076358         1.759452
 H        -1.552299        -0.157878         2.248059
 H        -2.917051         1.032897         0.048716
 H        -2.436972        -1.541315        -1.024987
 H        -1.127431        -0.521892        -1.894972
 H         0.861641        -2.180186         0.386747
 H        -0.275962         1.946452         0.612337
 H        -0.400648         1.639175        -1.088215
