19
Iteration:  2392
 C        -2.912173        -1.476175         1.642362
 C        -1.814898        -0.531493         1.150220
 C        -1.986142         0.401105        -0.101064
 C        -1.566046        -0.770484        -0.993392
 C        -0.685178        -1.164425         0.250297
 O        -0.109954        -2.331838         0.307015
 C         0.244112        -0.061095         0.196538
 O         1.457895        -0.189652         0.272987
 C        -0.671956         1.242532        -0.167132
 H        -3.865125        -1.600964         1.320529
 H        -2.543228        -2.584732         1.366902
 H        -3.033982        -1.559309         2.732956
 H        -1.373328         0.022773         2.063876
 H        -2.819805         1.067497        -0.188373
 H        -2.203745        -1.648281        -0.995287
 H        -0.935053        -0.452302        -1.872867
 H         0.806214        -2.161140         0.342780
 H        -0.680426         2.075034         0.520957
 H        -0.351710         1.618117        -1.169631
