19
Iteration:  3864charge 0 multiplicity 1
 C        -3.109258        -1.385380         1.394932
 C        -1.930369        -0.560079         1.146853
 C        -1.995353         0.309214        -0.084860
 C        -1.533077        -0.868752        -0.969478
 C        -0.614616        -1.197321         0.328768
 O         0.023360        -2.294164         0.625934
 C         0.312852        -0.021798         0.069583
 O         1.516024        -0.104908         0.037308
 C        -0.652219         1.176136         0.015812
 H        -3.218221        -1.985684         0.502598
 H        -2.854872        -1.978720         2.215395
 H        -4.043885        -0.846966         1.580081
 H        -1.871036         0.032713         2.028066
 H        -2.915410         0.863988        -0.400565
 H        -2.398964        -1.657546        -1.011771
 H        -1.033984        -0.906220        -1.972460
 H         1.017301        -2.039620         0.682501
 H        -0.607969         1.830972         0.912431
 H        -0.565782         1.760161        -0.827507
