19
Iteration:  3977charge 0 multiplicity 1
 C        -2.802716        -1.506771         1.639106
 C        -1.782251        -0.480555         1.116957
 C        -2.013512         0.385578        -0.183630
 C        -1.553907        -0.823921        -1.096136
 C        -0.703671        -1.144989         0.258704
 O        -0.162895        -2.468747         0.482343
 C         0.264464        -0.038555         0.190656
 O         1.438042         0.003058         0.447320
 C        -0.698227         1.153250        -0.300709
 H        -3.422592        -1.887151         0.827525
 H        -2.218333        -2.272162         2.284302
 H        -3.460597        -1.095629         2.410162
 H        -1.378693         0.244926         1.820918
 H        -2.939276         1.005698        -0.458723
 H        -2.384761        -1.471487        -1.305840
 H        -0.998604        -0.515531        -2.050167
 H         0.845326        -2.564635         0.437496
 H        -0.603722         2.113414         0.220346
 H        -0.504375         1.476598        -1.409519
