19
Iteration:  2483charge 0 multiplicity 1
 C        -3.036136        -1.516583         1.483510
 C        -1.840613        -0.571864         1.165609
 C        -1.977744         0.348442        -0.044690
 C        -1.485759        -0.754718        -0.961387
 C        -0.642407        -1.168405         0.389299
 O        -0.149273        -2.424018         0.515584
 C         0.319626        -0.006280         0.164734
 O         1.513142        -0.058353         0.017435
 C        -0.651973         1.245374        -0.091752
 H        -3.402827        -1.282854         2.484288
 H        -3.827773        -1.368158         0.743194
 H        -2.797679        -2.602848         1.484822
 H        -1.638523         0.098653         2.087174
 H        -3.010227         0.775667        -0.184204
 H        -2.329212        -1.406903        -1.168802
 H        -0.806290        -0.493607        -1.760970
 H         0.836393        -2.477054         0.341265
 H        -0.708702         2.145695         0.513040
 H        -0.488980         1.529769        -1.191413
