19
Iteration:  1010
 C        -2.950043        -1.492516         1.525023
 C        -1.715626        -0.566310         1.228975
 C        -1.999914         0.343539        -0.004756
 C        -1.637205        -0.733597        -0.983025
 C        -0.647026        -1.179901         0.218045
 O        -0.217407        -2.507859         0.448016
 C         0.339257        -0.013406         0.059330
 O         1.553429         0.045124         0.255592
 C        -0.662758         1.244387        -0.172320
 H        -3.244098        -2.025879         0.632835
 H        -2.750874        -2.273680         2.220874
 H        -3.922406        -1.222252         1.614479
 H        -1.383184        -0.023221         2.124776
 H        -2.966059         0.809380        -0.199333
 H        -2.366004        -1.611388        -1.004875
 H        -1.327493        -0.459515        -1.997785
 H         0.744006        -2.345072         0.765765
 H        -0.459377         2.038295         0.509471
 H        -0.553093         1.407440        -1.236695
