19
Iteration:  3197
 C        -2.887601        -1.420315         1.721249
 C        -1.888707        -0.258920         1.150804
 C        -1.985956         0.346075        -0.205070
 C        -1.623655        -1.042793        -0.971590
 C        -0.694095        -1.162260         0.131328
 O         0.005842        -2.424364         0.252867
 C         0.258707         0.013193         0.216052
 O         1.411194        -0.040318         0.504805
 C        -0.616892         1.115234        -0.260721
 H        -2.923583        -2.251683         1.101918
 H        -2.656280        -1.824234         2.696831
 H        -3.981973        -1.166216         1.641290
 H        -1.378341         0.272382         2.027814
 H        -2.823723         1.027030        -0.488394
 H        -2.555878        -1.675520        -0.890046
 H        -1.250189        -1.019619        -2.028962
 H         1.008683        -2.280061         0.242839
 H        -0.673536         1.895376         0.531254
 H        -0.314961         1.490376        -1.200014
