19
Iteration:  1463charge 0 multiplicity 1
 C        -2.932626        -1.338581         1.617911
 C        -1.766186        -0.513751         1.171052
 C        -2.010942         0.355259        -0.088188
 C        -1.781376        -0.878958        -0.999941
 C        -0.659193        -1.231326         0.076376
 O         0.054318        -2.359225         0.265530
 C         0.233128        -0.051754         0.161949
 O         1.432170        -0.080412         0.464313
 C        -0.567604         1.159601        -0.185120
 H        -3.360292        -2.061513         0.772724
 H        -2.816876        -2.052148         2.448331
 H        -3.729769        -0.747218         2.052454
 H        -1.359158        -0.073293         2.114422
 H        -2.770915         1.114109        -0.295360
 H        -2.624976        -1.577913        -0.783331
 H        -1.576668        -0.907803        -2.101768
 H         0.939142        -2.040592         0.640489
 H        -0.519619         1.833672         0.689335
 H        -0.277814         1.652111        -1.127255
