19
Iteration:  3921
 C        -3.047606        -1.426017         1.448140
 C        -1.891801        -0.537116         1.133667
 C        -2.020094         0.387374        -0.082388
 C        -1.565465        -0.937042        -0.963768
 C        -0.595769        -1.192860         0.237122
 O        -0.071178        -2.405539         0.599930
 C         0.320584        -0.017423         0.144067
 O         1.526611         0.002045         0.119134
 C        -0.651199         1.186939        -0.084596
 H        -3.193818        -2.208188         0.788514
 H        -2.820578        -2.053032         2.355312
 H        -3.996750        -0.910611         1.542929
 H        -1.518018         0.045361         1.955512
 H        -2.879990         1.044328        -0.477931
 H        -2.311174        -1.756765        -1.220350
 H        -0.979781        -0.597238        -1.863623
 H         0.929367        -2.237679         0.727465
 H        -0.765178         1.863085         0.803533
 H        -0.466645         1.812971        -0.962123
