19
Iteration:  3643
 C        -2.947016        -1.567925         1.515636
 C        -1.867388        -0.503578         1.104426
 C        -2.016666         0.397484        -0.219170
 C        -1.482011        -0.803191        -0.997444
 C        -0.643958        -1.165045         0.353874
 O        -0.167265        -2.390862         0.663554
 C         0.261279        -0.028921         0.158813
 O         1.486691        -0.034498         0.074882
 C        -0.648265         1.174933        -0.063985
 H        -3.348492        -2.180326         0.627619
 H        -2.538068        -2.383328         2.066170
 H        -3.675064        -0.968981         2.040448
 H        -1.440022         0.057195         1.948080
 H        -2.884365         0.986784        -0.500534
 H        -2.285211        -1.435551        -1.311059
 H        -0.879068        -0.462283        -1.957176
 H         0.779861        -2.264653         0.520714
 H        -0.473236         1.914765         0.724896
 H        -0.378887         1.610247        -1.054604
