19
Iteration:  3371charge 0 multiplicity 1
 C        -3.104741        -1.426662         1.461436
 C        -1.795466        -0.503897         1.215132
 C        -1.922797         0.314590        -0.121738
 C        -1.575236        -0.971661        -0.986585
 C        -0.659933        -1.205135         0.342534
 O        -0.015365        -2.378605         0.518442
 C         0.314083         0.070498         0.196197
 O         1.514405        -0.057529         0.168368
 C        -0.709487         1.244010        -0.158852
 H        -3.791390        -1.491831         0.446085
 H        -2.920651        -2.491974         1.833282
 H        -3.784734        -0.956965         2.241531
 H        -1.495865         0.105579         2.092326
 H        -2.917933         0.702673        -0.442783
 H        -2.414836        -1.606047        -1.093806
 H        -1.031709        -0.811043        -1.926921
 H         0.953635        -2.305154         0.200897
 H        -0.621906         2.077320         0.626629
 H        -0.642820         1.607996        -1.196839
