19
Iteration:  1047
 C        -2.857381        -1.620280         1.523355
 C        -1.852632        -0.474246         1.142412
 C        -1.967361         0.389636        -0.154536
 C        -1.564652        -0.814178        -0.983862
 C        -0.687572        -1.132537         0.237090
 O        -0.227344        -2.364569         0.502529
 C         0.267959        -0.024335         0.100037
 O         1.496290        -0.083951         0.121559
 C        -0.605879         1.233232         0.034750
 H        -3.016028        -2.094734         0.487594
 H        -2.383659        -2.343290         2.208219
 H        -3.716792        -1.156185         2.075527
 H        -1.413034         0.159100         1.959274
 H        -2.945163         0.860008        -0.231891
 H        -2.259435        -1.628586        -0.917913
 H        -1.203453        -0.631621        -2.054400
 H         0.726754        -2.415137         0.745340
 H        -0.683443         1.973220         0.874828
 H        -0.338700         1.880773        -0.788128
