19
Iteration:  2792charge 0 multiplicity 1
 C        -2.932943        -1.482918         1.416358
 C        -1.857439        -0.488163         1.090624
 C        -2.018457         0.401611        -0.245822
 C        -1.618743        -0.933366        -0.979650
 C        -0.690999        -1.199660         0.293900
 O        -0.001328        -2.278086         0.708316
 C         0.288809        -0.000362         0.098147
 O         1.501067        -0.132972         0.206477
 C        -0.668186         1.171544        -0.105121
 H        -3.994568        -0.989898         1.523571
 H        -3.009292        -2.184383         0.668561
 H        -2.694363        -1.876165         2.386997
 H        -1.396995        -0.008156         1.909479
 H        -2.991240         0.831369        -0.487174
 H        -2.389590        -1.660980        -1.032441
 H        -1.277102        -0.928808        -2.004262
 H         0.805933        -1.824482         0.839138
 H        -0.693785         1.845587         0.816624
 H        -0.509466         1.860651        -0.934569
