19
Iteration:    99charge 0 multiplicity 1
 C        -2.918506        -1.398911         1.789478
 C        -1.814360        -0.597051         1.087545
 C        -1.974073         0.366288        -0.160393
 C        -1.610832        -0.870265        -1.037879
 C        -0.754414        -1.161441         0.165185
 O        -0.046738        -2.375673         0.193328
 C         0.255879         0.005591         0.217755
 O         1.457676        -0.171696         0.375648
 C        -0.643236         1.259023        -0.094482
 H        -2.951907        -2.492594         1.794535
 H        -2.825642        -1.109310         2.823289
 H        -3.901120        -1.087612         1.517146
 H        -1.353738         0.034019         1.870390
 H        -2.868273         0.860628        -0.330878
 H        -2.416086        -1.491454        -1.199188
 H        -0.918541        -0.737265        -1.927592
 H         0.915971        -1.902556         0.122726
 H        -0.671763         1.890121         0.770453
 H        -0.207562         1.661195        -1.017474
