19
Iteration:  3097charge 0 multiplicity 1
 C        -2.998238        -1.502841         1.586072
 C        -1.891457        -0.527023         1.168669
 C        -1.972788         0.352840        -0.285887
 C        -1.640300        -0.974754        -0.910736
 C        -0.699178        -1.115514         0.299295
 O        -0.092973        -2.383579         0.439111
 C         0.354885         0.050546         0.223416
 O         1.561132         0.061586         0.304712
 C        -0.616272         1.134697        -0.238391
 H        -3.794086        -1.460119         0.793031
 H        -2.684748        -2.486950         1.615989
 H        -3.485839        -1.314607         2.526424
 H        -1.634298         0.121831         2.052499
 H        -2.790438         0.912208        -0.689623
 H        -2.447854        -1.760557        -0.807379
 H        -1.240977        -0.926527        -1.930952
 H         0.884294        -2.289010         0.265284
 H        -0.438441         1.880560         0.500762
 H        -0.429226         1.578704        -1.191276
