19
Iteration:  1645charge 0 multiplicity 1
 C        -3.036363        -1.451834         1.511966
 C        -1.810266        -0.573335         1.185887
 C        -1.941294         0.388331        -0.150851
 C        -1.548718        -0.766065        -1.019365
 C        -0.637008        -1.167196         0.301486
 O        -0.096777        -2.410177         0.536746
 C         0.311682         0.026710         0.144217
 O         1.504142        -0.116214         0.004815
 C        -0.729756         1.169472         0.011768
 H        -3.619257        -1.796535         0.565707
 H        -2.579495        -2.335287         1.923654
 H        -3.665386        -0.899721         2.298486
 H        -1.554598        -0.166819         2.110085
 H        -2.928824         0.857113        -0.124262
 H        -2.340734        -1.454152        -1.280612
 H        -0.892910        -0.591352        -1.830172
 H         0.893873        -2.220872         0.788873
 H        -0.867279         1.793829         0.950088
 H        -0.395473         1.833706        -0.756562
