19
Iteration:   102
 C        -2.941031        -1.403775         1.782195
 C        -1.836998        -0.616240         1.115500
 C        -1.948671         0.331110        -0.179169
 C        -1.605260        -0.833924        -0.994378
 C        -0.765718        -1.157891         0.167430
 O        -0.032632        -2.367963         0.177196
 C         0.276999         0.053918         0.225749
 O         1.480266        -0.188199         0.377087
 C        -0.639945         1.241452        -0.106424
 H        -3.013702        -2.504129         1.734222
 H        -2.867324        -1.065031         2.852477
 H        -3.981963        -1.128984         1.630291
 H        -1.338135         0.008572         1.856622
 H        -2.894000         0.821445        -0.407718
 H        -2.501950        -1.513737        -1.216014
 H        -1.072556        -0.805264        -1.993600
 H         0.817966        -1.888979         0.089325
 H        -0.662622         2.002836         0.656963
 H        -0.253969         1.701985        -1.066635
