19
Iteration:  3464charge 0 multiplicity 1
 C        -2.728690        -1.527921         1.641046
 C        -1.785097        -0.361234         1.078269
 C        -2.048678         0.436482        -0.180591
 C        -1.692239        -0.946112        -0.945718
 C        -0.722267        -1.145199         0.169549
 O        -0.157222        -2.461769         0.362554
 C         0.294961        -0.014343         0.132740
 O         1.402795         0.011106         0.604945
 C        -0.585450         1.151415        -0.354881
 H        -2.597696        -2.413409         1.083087
 H        -2.587079        -1.724983         2.828995
 H        -3.819404        -1.319433         1.444328
 H        -1.291239         0.108879         1.985684
 H        -2.908424         1.008925        -0.496009
 H        -2.608318        -1.635176        -1.138390
 H        -1.155208        -0.691539        -1.915343
 H         0.834106        -2.425555         0.599686
 H        -0.392014         2.007121         0.234782
 H        -0.337354         1.296189        -1.443595
