19
Iteration:  4366charge 0 multiplicity 1
 C        -3.056188        -1.355175         1.546564
 C        -1.785018        -0.621395         1.113020
 C        -1.934212         0.279428        -0.184599
 C        -1.535304        -0.913418        -0.973418
 C        -0.653526        -1.177665         0.230052
 O        -0.065446        -2.356718         0.494017
 C         0.273309         0.034857         0.062434
 O         1.468901        -0.000922         0.220860
 C        -0.681912         1.143684        -0.039518
 H        -3.665184        -1.801680         0.784034
 H        -2.778809        -2.238271         2.260602
 H        -3.806760        -0.555573         1.974016
 H        -1.589528        -0.061716         2.096263
 H        -2.852428         0.919728        -0.392591
 H        -2.268770        -1.676979        -1.044181
 H        -1.045347        -0.712312        -1.959570
 H         0.806586        -2.236416         0.883984
 H        -0.574992         1.809093         0.895023
 H        -0.337666         1.704807        -0.855867
