19
Iteration:  4061
 C        -3.037319        -1.389584         1.603992
 C        -1.732410        -0.613145         1.137232
 C        -1.987290         0.339521        -0.048994
 C        -1.550126        -0.905334        -1.019153
 C        -0.667724        -1.162110         0.171099
 O        -0.128833        -2.409287         0.402602
 C         0.301790         0.032225         0.195842
 O         1.481357         0.077514         0.418566
 C        -0.651108         1.102666        -0.279642
 H        -3.506794        -2.019439         0.915323
 H        -2.694730        -2.049968         2.382819
 H        -3.716612        -0.590529         1.897050
 H        -1.318410        -0.222153         2.106174
 H        -2.885854         1.023694        -0.180563
 H        -2.319234        -1.729764        -1.110442
 H        -1.092418        -0.676388        -2.002793
 H         0.730405        -2.459401        -0.041800
 H        -0.621105         2.109770         0.206940
 H        -0.459581         1.188366        -1.287805
