19
Iteration:  2044
 C        -2.768888        -1.475961         1.770394
 C        -1.793081        -0.574539         1.140797
 C        -2.044296         0.410040        -0.192036
 C        -1.546201        -0.806452        -1.095875
 C        -0.736658        -1.180368         0.168647
 O        -0.228830        -2.476672         0.314176
 C         0.295558         0.004888         0.196497
 O         1.507781        -0.051643         0.361791
 C        -0.705551         1.245695        -0.123509
 H        -3.201290        -2.182205         1.130549
 H        -2.357503        -2.076609         2.676153
 H        -3.570209        -0.812575         2.126909
 H        -1.257373         0.024040         2.012231
 H        -2.918291         0.998971        -0.435261
 H        -2.279129        -1.592545        -1.305966
 H        -1.094765        -0.429392        -2.026004
 H         0.649246        -2.386012        -0.019923
 H        -0.706718         1.728017         0.795303
 H        -0.279199         1.811878        -1.009955
