19
Iteration:  3724
 C        -2.932296        -1.349280         1.605275
 C        -1.711042        -0.572496         1.183132
 C        -2.008066         0.368498        -0.175471
 C        -1.652031        -0.870220        -0.968337
 C        -0.708272        -1.208650         0.238739
 O         0.009249        -2.470311         0.287940
 C         0.243821        -0.003055         0.194262
 O         1.410368        -0.007789         0.547571
 C        -0.646031         1.161539        -0.369911
 H        -3.353357        -2.028411         0.900247
 H        -2.778415        -1.732655         2.672489
 H        -3.798177        -0.679800         1.857166
 H        -1.149639         0.033530         2.031987
 H        -2.946070         0.970510        -0.359262
 H        -2.472615        -1.669476        -0.873067
 H        -1.260651        -0.912266        -1.933381
 H         0.923746        -2.154983         0.271636
 H        -0.462925         2.218399         0.147608
 H        -0.582006         1.397136        -1.430374
