19
Iteration:  2514charge 0 multiplicity 1
 C        -2.881154        -1.555415         1.480829
 C        -1.818536        -0.476952         1.095457
 C        -1.921996         0.383213        -0.109929
 C        -1.698102        -0.887230        -1.026471
 C        -0.708639        -1.105464         0.226150
 O        -0.092058        -2.331769         0.605866
 C         0.291147        -0.037732         0.055935
 O         1.492685        -0.140261         0.153440
 C        -0.624389         1.231820         0.009169
 H        -2.961562        -1.801367         2.476403
 H        -3.995523        -1.197212         1.257946
 H        -2.763295        -2.531635         0.908290
 H        -1.561558         0.216793         2.007772
 H        -2.860819         0.935677        -0.151635
 H        -2.717761        -1.316555        -1.130844
 H        -1.058329        -0.781511        -1.960429
 H         0.826678        -2.267484         0.701578
 H        -0.742343         1.804179         0.898269
 H        -0.366746         1.976074        -0.792123
