19
Iteration:  2635charge 0 multiplicity 1
 C        -2.829986        -1.404142         1.620013
 C        -1.789597        -0.500792         1.118904
 C        -1.968901         0.355834        -0.147312
 C        -1.638504        -0.883385        -0.979791
 C        -0.701561        -1.210026         0.124131
 O        -0.069961        -2.445293         0.409652
 C         0.274634         0.070650         0.103200
 O         1.414802        -0.019282         0.515267
 C        -0.679854         1.148620        -0.267817
 H        -2.897552        -2.322312         1.095396
 H        -2.860765        -1.723720         2.722814
 H        -3.865673        -1.047567         1.393866
 H        -1.300907        -0.049299         1.987754
 H        -2.935001         0.920470        -0.279139
 H        -2.571645        -1.492645        -1.078129
 H        -1.202801        -0.944648        -1.996001
 H         0.847692        -2.241603         0.566869
 H        -0.455079         1.989445         0.342717
 H        -0.406470         1.538317        -1.265421
