19
Iteration:  4002charge 0 multiplicity 1
 C        -2.853843        -1.433572         1.706454
 C        -1.777515        -0.484397         1.077622
 C        -2.036577         0.296361        -0.218004
 C        -1.622166        -0.941832        -1.055141
 C        -0.694808        -1.128791         0.097633
 O        -0.091841        -2.374647         0.385109
 C         0.294580         0.040239         0.118271
 O         1.418270        -0.084138         0.573080
 C        -0.640596         1.178756        -0.240363
 H        -3.678906        -1.862381         0.992090
 H        -2.275422        -2.189843         2.245339
 H        -3.325451        -0.972029         2.625452
 H        -1.330297         0.228903         1.799770
 H        -2.937951         0.715475        -0.552257
 H        -2.474635        -1.588398        -1.015699
 H        -1.363921        -0.737788        -2.059660
 H         0.845217        -2.193210         0.722239
 H        -0.586795         2.031523         0.466408
 H        -0.261676         1.698020        -1.249894
