19
Iteration:  3021
 C        -3.119087        -1.553686         1.393440
 C        -1.983560        -0.478599         1.229380
 C        -1.981549         0.377399        -0.248204
 C        -1.510139        -0.935596        -0.855804
 C        -0.653500        -1.093686         0.396144
 O        -0.059477        -2.379952         0.716091
 C         0.385333         0.003726         0.066958
 O         1.601695         0.018734        -0.039072
 C        -0.673601         1.161526        -0.069071
 H        -4.078820        -1.240590         0.907646
 H        -2.914829        -2.405394         0.874210
 H        -3.255742        -1.773578         2.422678
 H        -1.717464         0.026105         2.179656
 H        -2.834252         0.965326        -0.591330
 H        -2.357744        -1.676997        -0.828012
 H        -0.938416        -0.920546        -1.792152
 H         0.820780        -2.414683         0.361228
 H        -0.760788         1.869396         0.740376
 H        -0.332945         1.696843        -0.918059
