19
Iteration:  4971
 C        -2.902114        -1.474344         1.473568
 C        -1.865960        -0.469550         1.147867
 C        -1.995123         0.348507        -0.124285
 C        -1.554098        -0.917699        -1.010740
 C        -0.675902        -1.165422         0.284507
 O        -0.091376        -2.350314         0.666543
 C         0.275303         0.052258         0.057492
 O         1.480875        -0.117037         0.097797
 C        -0.664628         1.204988        -0.045242
 H        -3.394734        -1.916448         0.540743
 H        -2.452885        -2.276686         2.005520
 H        -3.789129        -1.263137         1.974547
 H        -1.653527         0.069028         2.127052
 H        -2.850471         0.848620        -0.450585
 H        -2.398766        -1.536734        -1.418130
 H        -1.070724        -0.705326        -1.903942
 H         0.920590        -2.322602         0.591937
 H        -0.534863         1.790169         0.833741
 H        -0.551620         1.960022        -0.785529
