19
Iteration:  3410
 C        -3.016678        -1.356908         1.694300
 C        -1.808834        -0.518111         1.164091
 C        -1.909592         0.287193        -0.183927
 C        -1.552600        -0.943239        -1.109550
 C        -0.711018        -1.220574         0.184711
 O        -0.042195        -2.454089         0.394786
 C         0.294450         0.010599         0.103444
 O         1.472270         0.052416         0.382355
 C        -0.690049         1.190066        -0.168612
 H        -3.397615        -2.056264         0.989112
 H        -2.784315        -1.982276         2.547957
 H        -3.827866        -0.664467         1.853998
 H        -1.285069        -0.037935         2.058338
 H        -2.841011         0.803691        -0.364018
 H        -2.513674        -1.552264        -1.115022
 H        -1.103364        -0.739051        -2.101944
 H         0.699798        -2.321550         1.059673
 H        -0.800227         1.891777         0.630131
 H        -0.426285         1.808381        -1.069788
