19
Iteration:  4740
 C        -3.026980        -1.416323         1.537440
 C        -1.798910        -0.581484         1.235951
 C        -1.960768         0.331219        -0.189560
 C        -1.542273        -0.892763        -1.028714
 C        -0.665210        -1.143704         0.285034
 O        -0.116762        -2.385477         0.521559
 C         0.295689         0.016176         0.210123
 O         1.514226        -0.005508         0.151784
 C        -0.675724         1.138055        -0.174962
 H        -3.458062        -1.934359         0.680790
 H        -2.589487        -2.020011         2.345380
 H        -3.918499        -0.891882         1.957063
 H        -1.451910        -0.023100         2.056154
 H        -2.863434         0.896749        -0.346559
 H        -2.225462        -1.784934        -1.229726
 H        -1.157966        -0.830680        -2.054269
 H         0.892167        -2.120593         0.569505
 H        -0.809959         1.786463         0.802137
 H        -0.419429         1.877116        -0.918676
