19
Iteration:  2406charge 0 multiplicity 1
 C        -2.965072        -1.508797         1.637200
 C        -1.834227        -0.557315         1.164639
 C        -1.973241         0.397474        -0.086735
 C        -1.552980        -0.794367        -1.043211
 C        -0.704796        -1.101816         0.230885
 O        -0.050839        -2.359949         0.395671
 C         0.285485         0.059562         0.129341
 O         1.459929        -0.212463         0.226451
 C        -0.670988         1.157618        -0.075490
 H        -3.834632        -0.941005         1.310524
 H        -2.856399        -2.576326         1.305377
 H        -2.924874        -1.407275         2.749896
 H        -1.415760        -0.108034         2.042542
 H        -2.898754         0.937583        -0.355240
 H        -2.382725        -1.435005        -1.332364
 H        -1.139014        -0.549100        -2.010963
 H         0.951284        -2.098196         0.263722
 H        -0.555468         1.842044         0.787808
 H        -0.633986         1.772639        -1.055430
