19
Iteration:  2185charge 0 multiplicity 1
 C        -2.862704        -1.523616         1.555874
 C        -1.773945        -0.465043         1.173218
 C        -1.942314         0.438527        -0.094949
 C        -1.561446        -0.876378        -1.000896
 C        -0.689738        -1.155759         0.253368
 O        -0.222190        -2.394248         0.464467
 C         0.270328        -0.015115         0.171483
 O         1.494315        -0.075470         0.021095
 C        -0.704931         1.211697         0.017562
 H        -3.541111        -1.484474         0.782160
 H        -2.380392        -2.556684         1.257856
 H        -3.333417        -1.486171         2.558716
 H        -1.518283         0.107202         2.051026
 H        -2.845790         1.028546        -0.119622
 H        -2.446077        -1.493829        -1.197373
 H        -0.896239        -0.774184        -1.887949
 H         0.723935        -2.639403         0.794666
 H        -0.708600         1.622851         1.047091
 H        -0.370405         1.936723        -0.831429
