19
Iteration:   563
 C        -2.873009        -1.559268         1.576252
 C        -1.923120        -0.490122         1.163151
 C        -1.964408         0.348556        -0.101239
 C        -1.566001        -0.857415        -0.964606
 C        -0.651896        -1.106092         0.267228
 O        -0.237757        -2.352263         0.414227
 C         0.340163        -0.045226         0.191719
 O         1.561459        -0.070828         0.122707
 C        -0.636699         1.219978        -0.086675
 H        -3.195493        -2.190089         0.702277
 H        -2.476617        -2.129678         2.395188
 H        -3.870310        -1.189038         1.986690
 H        -1.481478         0.080634         2.006506
 H        -2.725567         0.991880        -0.493295
 H        -2.434897        -1.441087        -1.001022
 H        -1.257310        -0.687427        -2.017373
 H         0.734170        -2.350264         0.585381
 H        -0.795852         1.901967         0.840408
 H        -0.509963         1.771643        -1.009631
