19
Iteration:  1274charge 0 multiplicity 1
 C        -3.026395        -1.345747         1.515676
 C        -1.757317        -0.621049         1.200210
 C        -1.928813         0.372211        -0.051375
 C        -1.598191        -0.897605        -0.903590
 C        -0.626680        -1.233381         0.217522
 O        -0.131117        -2.564853         0.298031
 C         0.285416         0.030556         0.141755
 O         1.496982         0.101492         0.298571
 C        -0.709139         1.247800        -0.128022
 H        -3.385271        -1.973444         0.653471
 H        -2.737791        -2.091794         2.292940
 H        -3.662722        -0.599090         1.890566
 H        -1.220471        -0.166780         2.035474
 H        -2.819145         1.021004        -0.101730
 H        -2.270830        -1.629895        -1.291253
 H        -1.270693        -0.641477        -1.938516
 H         0.830190        -2.596549         0.616911
 H        -0.491500         1.977607         0.695908
 H        -0.627785         1.593282        -1.166403
