19
Iteration:  1138charge 0 multiplicity 1
 C        -2.953291        -1.333081         1.457237
 C        -1.763711        -0.537211         1.217408
 C        -2.041804         0.339371        -0.071364
 C        -1.638978        -0.913299        -0.872594
 C        -0.640145        -1.175371         0.232402
 O        -0.116768        -2.474293         0.263657
 C         0.310495         0.019693         0.175073
 O         1.544148         0.023996         0.283096
 C        -0.687960         1.153454        -0.107204
 H        -3.359581        -1.793930         0.643941
 H        -2.803586        -2.232036         2.077489
 H        -3.661274        -0.733128         2.071888
 H        -1.402229        -0.209988         2.204340
 H        -2.901871         1.016146        -0.245784
 H        -2.331092        -1.779931        -0.732796
 H        -1.313222        -0.858532        -1.870719
 H         0.903609        -2.305096         0.336938
 H        -0.596538         1.932752         0.656345
 H        -0.519926         1.640019        -1.125121
