19
Iteration:  4997
 C        -2.996406        -1.442205         1.447212
 C        -1.790382        -0.568796         1.162053
 C        -1.973403         0.385888        -0.130218
 C        -1.537584        -0.901627        -1.003185
 C        -0.628836        -1.159258         0.379467
 O        -0.106924        -2.379895         0.582988
 C         0.303841         0.035246         0.167736
 O         1.495669        -0.041551         0.074743
 C        -0.729015         1.175552        -0.109457
 H        -3.662226        -1.818319         0.657352
 H        -2.648721        -2.341961         2.076520
 H        -3.766268        -1.106680         2.180464
 H        -1.594885        -0.201155         2.139830
 H        -2.937863         1.034528        -0.273169
 H        -2.284353        -1.587214        -1.116220
 H        -1.068572        -0.735862        -2.118094
 H         0.912978        -2.424852         0.710090
 H        -0.712709         2.083411         0.551145
 H        -0.367804         1.659086        -1.154654
