19
Iteration:  3384charge 0 multiplicity 1
 C        -3.056229        -1.310591         1.517932
 C        -1.892758        -0.536311         1.145810
 C        -2.001158         0.321578        -0.139541
 C        -1.497113        -0.896821        -0.934491
 C        -0.663464        -1.190385         0.277000
 O         0.009714        -2.443614         0.454764
 C         0.279774        -0.001708         0.211726
 O         1.505386         0.001945         0.207163
 C        -0.707602         1.120823        -0.167247
 H        -3.680625        -1.663042         0.636907
 H        -2.599034        -2.301386         1.986710
 H        -3.754677        -0.750913         2.230236
 H        -1.452148        -0.096698         2.100329
 H        -2.938453         0.961972        -0.251711
 H        -2.203948        -1.718540        -0.969277
 H        -1.024507        -0.719439        -1.956737
 H         0.965304        -2.147930         0.436683
 H        -0.857401         2.025558         0.492641
 H        -0.365131         1.509457        -1.090287
