19
Iteration:  1269
 C        -2.992944        -1.391250         1.518068
 C        -1.750938        -0.655647         1.221498
 C        -1.950985         0.371601        -0.006190
 C        -1.589182        -0.876767        -0.936989
 C        -0.634328        -1.200340         0.217521
 O        -0.157093        -2.510465         0.290253
 C         0.308337         0.030119         0.127954
 O         1.496029         0.119612         0.322795
 C        -0.661806         1.156846        -0.180943
 H        -3.580368        -1.873782         0.748531
 H        -2.767204        -2.073242         2.344828
 H        -3.762299        -0.562912         1.820708
 H        -1.326289        -0.203352         2.236706
 H        -2.785992         1.067701        -0.115992
 H        -2.358989        -1.635856        -1.303813
 H        -1.305963        -0.508323        -1.932725
 H         0.718145        -2.594630         0.713806
 H        -0.524552         1.980991         0.516965
 H        -0.598848         1.554067        -1.230235
