19
Iteration:   526
 C        -2.870128        -1.549341         1.405965
 C        -1.753534        -0.567846         1.161324
 C        -1.851385         0.444768         0.028742
 C        -1.631415        -0.709948        -0.999408
 C        -0.690888        -1.236270         0.240763
 O        -0.232223        -2.421868         0.659910
 C         0.280004        -0.001190         0.145188
 O         1.486769        -0.024242         0.106492
 C        -0.681739         1.211468        -0.156273
 H        -2.819937        -2.221178         0.565077
 H        -2.634850        -2.239417         2.244699
 H        -3.811876        -1.069795         1.370506
 H        -1.395354        -0.258541         2.121656
 H        -2.921181         0.720139        -0.079618
 H        -2.555646        -1.351674        -1.010225
 H        -1.282924        -0.510898        -1.971263
 H         0.679057        -2.580660         0.434192
 H        -0.415070         2.003114         0.468233
 H        -0.662037         1.664921        -1.174608
