19
Iteration:  2684charge 0 multiplicity 1
 C        -2.862684        -1.519414         1.514442
 C        -1.844201        -0.431416         1.090782
 C        -1.977876         0.419996        -0.210774
 C        -1.637070        -0.910632        -1.006755
 C        -0.701616        -1.182956         0.198873
 O        -0.084729        -2.335073         0.620266
 C         0.257897        -0.056213         0.127313
 O         1.494047        -0.080126         0.292985
 C        -0.678314         1.227181        -0.149591
 H        -3.558497        -1.955976         0.681789
 H        -2.329023        -2.334531         1.982333
 H        -3.575180        -1.232239         2.300176
 H        -1.350969        -0.023143         2.096706
 H        -2.932572         0.828978        -0.452398
 H        -2.301864        -1.772427        -1.068841
 H        -0.992722        -0.879875        -1.901085
 H         0.936506        -2.198245         0.638033
 H        -0.773744         2.073264         0.625028
 H        -0.481699         1.696890        -1.141919
