19
Iteration:  2189
 C        -2.876442        -1.536067         1.551037
 C        -1.767947        -0.474121         1.198191
 C        -1.970567         0.453534        -0.091811
 C        -1.556205        -0.906653        -0.982295
 C        -0.675568        -1.135869         0.277848
 O        -0.240682        -2.411035         0.443664
 C         0.292728        -0.003620         0.155952
 O         1.505235        -0.045459         0.015304
 C        -0.660250         1.183292         0.007429
 H        -3.624741        -1.562374         0.659881
 H        -2.492679        -2.495319         1.387117
 H        -3.383125        -1.564924         2.549317
 H        -1.576914         0.193867         2.119891
 H        -2.926344         1.049851        -0.132551
 H        -2.475135        -1.434096        -1.244899
 H        -0.887454        -0.739614        -1.830852
 H         0.637240        -2.484698         0.720754
 H        -0.773850         1.685442         0.959433
 H        -0.294958         1.805493        -0.795664
