19
Iteration:  3546charge 0 multiplicity 1
 C        -3.109055        -1.359786         1.602327
 C        -1.851278        -0.602285         1.083532
 C        -1.978909         0.338129        -0.172355
 C        -1.521309        -0.994633        -1.052614
 C        -0.657082        -1.167561         0.308598
 O        -0.071339        -2.393493         0.496104
 C         0.306489         0.072342         0.236928
 O         1.529687         0.006714         0.181037
 C        -0.661784         1.184425        -0.093118
 H        -3.695271        -1.852474         0.697715
 H        -2.817077        -2.247133         2.155034
 H        -3.659230        -0.665385         2.279618
 H        -1.396583         0.086396         1.890362
 H        -2.971653         0.615875        -0.564653
 H        -2.262562        -1.761370        -1.145219
 H        -0.888882        -1.016985        -1.997876
 H         0.919188        -2.170925         0.349871
 H        -0.475054         1.963634         0.776866
 H        -0.544597         1.704527        -1.092851
