19
Iteration:  1114
 C        -3.092984        -1.381617         1.473964
 C        -1.783370        -0.585529         1.183274
 C        -1.935794         0.314555         0.026272
 C        -1.644881        -0.833272        -0.945717
 C        -0.633704        -1.213149         0.235828
 O        -0.014876        -2.460599         0.385367
 C         0.308342         0.016703         0.076705
 O         1.508389         0.003178         0.196598
 C        -0.671241         1.228412        -0.096716
 H        -3.457636        -1.910583         0.616877
 H        -3.043957        -2.289569         2.028509
 H        -3.776574        -0.760621         2.079771
 H        -1.383855        -0.239197         2.179491
 H        -2.894095         0.897271        -0.051659
 H        -2.461569        -1.546649        -0.969899
 H        -1.348353        -0.618212        -1.999198
 H         0.800332        -2.332893         0.823455
 H        -0.548722         1.949941         0.731734
 H        -0.465389         1.728674        -1.059810
