19
Iteration:  1408charge 0 multiplicity 1
 C        -2.962809        -1.395746         1.723169
 C        -1.855858        -0.601339         1.092625
 C        -1.974756         0.340686        -0.126715
 C        -1.410322        -0.762787        -1.084616
 C        -0.657441        -1.219267         0.201316
 O        -0.209329        -2.497242         0.438458
 C         0.250830        -0.025616         0.156343
 O         1.478231         0.069182         0.146949
 C        -0.655834         1.131823         0.028534
 H        -3.784875        -1.872399         1.064696
 H        -2.521132        -2.191435         2.298370
 H        -3.653602        -0.785989         2.212742
 H        -1.334798        -0.019091         1.878694
 H        -2.718234         1.073672        -0.471194
 H        -2.122859        -1.550657        -1.436544
 H        -0.813076        -0.491416        -1.994531
 H         0.746311        -2.446958         0.615311
 H        -0.686000         2.049732         0.647896
 H        -0.359794         1.580273        -0.932257
