19
Iteration:  4187
 C        -3.034586        -1.436908         1.365037
 C        -1.835863        -0.589145         1.101047
 C        -1.978531         0.349872        -0.110171
 C        -1.586759        -0.928332        -0.889227
 C        -0.632692        -1.164537         0.272504
 O        -0.052562        -2.444656         0.611931
 C         0.314371         0.037025         0.108368
 O         1.541832         0.003202         0.107070
 C        -0.691266         1.243830        -0.012770
 H        -3.688368        -1.455152         0.369197
 H        -2.985917        -2.231150         2.074756
 H        -3.712404        -0.764274         1.978876
 H        -1.587087        -0.255508         2.139813
 H        -2.903907         0.806100        -0.295825
 H        -2.436687        -1.671800        -1.087848
 H        -1.028872        -0.771831        -1.910490
 H         0.971540        -2.317394         0.675146
 H        -0.652181         1.948229         0.731437
 H        -0.587574         1.746181        -1.055121
