19
Iteration:  4447charge 0 multiplicity 1
 C        -2.895493        -1.541749         1.392753
 C        -1.823654        -0.492205         1.145747
 C        -1.950252         0.397073        -0.151459
 C        -1.575965        -0.800680        -1.003110
 C        -0.617086        -1.129981         0.372598
 O        -0.182998        -2.471969         0.673318
 C         0.305206         0.004817         0.149534
 O         1.532606        -0.061774         0.038728
 C        -0.750838         1.217277        -0.096508
 H        -3.347701        -2.013619         0.353272
 H        -2.558271        -2.401462         2.060077
 H        -3.696356        -1.021964         1.998911
 H        -1.566187        -0.005538         2.081033
 H        -2.844651         0.964979        -0.327099
 H        -2.400954        -1.545130        -1.089118
 H        -1.101614        -0.628640        -1.904712
 H         0.684225        -2.204382         1.035964
 H        -0.645450         1.785188         0.853813
 H        -0.552987         1.867946        -1.031142
