19
Iteration:   845charge 0 multiplicity 1
 C        -2.907575        -1.537782         1.564820
 C        -1.838192        -0.490818         1.175050
 C        -2.002121         0.422129        -0.141595
 C        -1.543193        -0.771177        -1.013097
 C        -0.639568        -1.161870         0.281175
 O        -0.174878        -2.457782         0.443038
 C         0.292027        -0.026478         0.185670
 O         1.491596        -0.044680         0.156764
 C        -0.698947         1.214660        -0.116105
 H        -3.418759        -2.079984         0.738176
 H        -2.155619        -2.119289         2.154588
 H        -3.688758        -1.123438         2.243783
 H        -1.318170        -0.025527         2.059090
 H        -2.977263         0.932794        -0.414739
 H        -2.329254        -1.572724        -1.298310
 H        -0.955208        -0.522953        -1.974965
 H         0.644965        -2.525185         1.021915
 H        -0.692229         1.729977         0.819419
 H        -0.266229         1.677318        -1.042002
