19
Iteration:  3874charge 0 multiplicity 1
 C        -3.162986        -1.429602         1.404688
 C        -1.923548        -0.497605         1.147847
 C        -2.005130         0.361192        -0.105034
 C        -1.448165        -0.880668        -0.980747
 C        -0.633438        -1.112019         0.302026
 O         0.092719        -2.339456         0.621022
 C         0.279474         0.007525         0.151813
 O         1.509647        -0.195004         0.011256
 C        -0.734068         1.184275         0.003472
 H        -3.397816        -2.265959         0.683696
 H        -3.111643        -1.953025         2.302776
 H        -4.036949        -0.769368         1.617614
 H        -1.503332         0.073628         1.983776
 H        -2.962878         0.865811        -0.092103
 H        -2.226651        -1.741486        -1.055524
 H        -0.846773        -0.727518        -1.919787
 H         1.051328        -1.992326         0.480755
 H        -0.605088         1.887275         0.827149
 H        -0.591759         1.687373        -0.895656
