19
Iteration:  2194charge 0 multiplicity 1
 C        -2.908028        -1.543355         1.510405
 C        -1.794297        -0.483616         1.242652
 C        -2.011972         0.440162        -0.088129
 C        -1.556759        -0.899133        -0.944277
 C        -0.666231        -1.118658         0.315326
 O        -0.271114        -2.450753         0.416547
 C         0.325639         0.018147         0.123970
 O         1.519986        -0.005407         0.012837
 C        -0.594875         1.150668         0.004964
 H        -3.705680        -1.582224         0.757207
 H        -2.473255        -2.631173         1.629011
 H        -3.415692        -1.525119         2.460341
 H        -1.546907         0.121673         2.080977
 H        -2.924397         0.986810        -0.248038
 H        -2.430259        -1.506145        -1.222548
 H        -0.964210        -0.669573        -1.850573
 H         0.733246        -2.228798         0.682368
 H        -0.700181         1.918816         0.852082
 H        -0.213798         1.758061        -0.857465
