19
Iteration:  1625
 C        -3.097741        -1.500090         1.380293
 C        -1.847761        -0.599773         1.166567
 C        -1.972587         0.382630         0.071001
 C        -1.663779        -0.876090        -0.949633
 C        -0.658445        -1.192164         0.184801
 O        -0.031871        -2.340922         0.630871
 C         0.322510         0.013208         0.027639
 O         1.525787        -0.058925         0.067122
 C        -0.582706         1.229570        -0.015005
 H        -3.597597        -1.634123         0.362048
 H        -3.058521        -2.389692         1.890164
 H        -3.549771        -0.814839         2.023405
 H        -1.469478        -0.247969         2.120523
 H        -2.885964         0.920559        -0.243380
 H        -2.447247        -1.614614        -0.866810
 H        -1.433326        -0.685952        -1.982167
 H         0.919111        -2.195997         0.271768
 H        -0.179468         1.823721         0.885238
 H        -0.325367         1.861488        -0.875264
