19
Iteration:   339charge 0 multiplicity 1
 C        -2.826639        -1.430339         1.662794
 C        -1.810444        -0.521766         1.041122
 C        -1.916906         0.458317        -0.177614
 C        -1.633905        -0.865950        -1.093206
 C        -0.772267        -1.221898         0.125618
 O        -0.106341        -2.452697         0.354677
 C         0.279956        -0.022814         0.181511
 O         1.453134        -0.044181         0.359439
 C        -0.660850         1.208685        -0.006258
 H        -3.166464        -2.353371         1.134519
 H        -2.212426        -1.981739         2.445976
 H        -3.648061        -0.957964         2.173457
 H        -1.327803         0.029236         1.850276
 H        -2.784767         1.131416        -0.421939
 H        -2.543118        -1.544522        -1.145464
 H        -1.168259        -0.853329        -2.007681
 H         0.597873        -2.340184         1.074333
 H        -0.787338         1.914020         0.805454
 H        -0.552006         1.768224        -1.010053
