19
Iteration:  3493
 C        -2.859265        -1.522667         1.637583
 C        -1.700080        -0.467308         1.110357
 C        -1.943301         0.384874        -0.151876
 C        -1.704407        -0.952705        -0.994503
 C        -0.659687        -1.138950         0.091544
 O        -0.135433        -2.363379         0.420903
 C         0.277027         0.060499         0.131190
 O         1.421087        -0.055570         0.556813
 C        -0.628884         1.157816        -0.343566
 H        -2.851635        -2.298921         0.900378
 H        -2.803339        -1.723102         2.681895
 H        -3.903322        -1.110800         1.719597
 H        -1.149055        -0.082672         1.943468
 H        -2.856137         0.948472        -0.424838
 H        -2.560723        -1.533305        -1.111110
 H        -1.418721        -0.732535        -1.997067
 H         0.612633        -2.274927         1.047034
 H        -0.695523         2.040328         0.357795
 H        -0.455289         1.327443        -1.384902
