19
Iteration:  4479charge 0 multiplicity 1
 C        -2.907757        -1.483675         1.616997
 C        -1.821329        -0.534635         1.166640
 C        -1.900880         0.355067        -0.211864
 C        -1.529470        -0.901338        -1.095094
 C        -0.686777        -1.132782         0.229987
 O        -0.209236        -2.398269         0.567109
 C         0.275601         0.021665         0.137972
 O         1.480730         0.011825         0.200457
 C        -0.677903         1.158155        -0.082417
 H        -3.328558        -2.242160         0.832084
 H        -2.641505        -2.221915         2.446467
 H        -3.715639        -0.816140         1.982348
 H        -1.447581         0.132999         1.941682
 H        -2.728678         0.982528        -0.501319
 H        -2.341341        -1.668613        -1.169477
 H        -1.131378        -0.737543        -2.020395
 H         0.756780        -2.494779         0.282865
 H        -0.510857         1.754861         0.845658
 H        -0.411056         1.820712        -0.926148
