19
Iteration:  1587
 C        -2.996964        -1.437617         1.445952
 C        -1.821185        -0.591492         1.240969
 C        -2.033302         0.367977        -0.032211
 C        -1.560751        -0.752108        -1.017586
 C        -0.624338        -1.154225         0.315302
 O        -0.036100        -2.438030         0.471389
 C         0.282214         0.023830         0.155828
 O         1.482436        -0.103507         0.133156
 C        -0.661795         1.191425        -0.130305
 H        -3.662424        -1.665310         0.647948
 H        -2.850903        -2.437828         2.082422
 H        -3.724619        -0.796328         2.199447
 H        -1.636530        -0.113432         2.220645
 H        -3.064344         0.759309        -0.050218
 H        -2.326854        -1.523640        -1.221293
 H        -1.007948        -0.367368        -1.914985
 H         0.961463        -2.328372         0.362010
 H        -0.551112         1.986332         0.573210
 H        -0.414705         1.488308        -1.168370
