19
Iteration:   216
 C        -2.786181        -1.600225         1.609498
 C        -1.907026        -0.514022         1.051651
 C        -1.932589         0.408874        -0.188286
 C        -1.468895        -0.772187        -1.029013
 C        -0.754650        -1.166731         0.230212
 O        -0.237565        -2.386252         0.522058
 C         0.225942         0.030362         0.158801
 O         1.452010        -0.158105         0.086182
 C        -0.617387         1.305406         0.070212
 H        -3.568449        -1.969074         0.937164
 H        -2.075074        -2.331228         1.938752
 H        -3.334796        -1.294455         2.536765
 H        -1.489329        -0.030389         1.938989
 H        -2.847396         0.891158        -0.455621
 H        -2.217915        -1.457265        -1.223883
 H        -0.834525        -0.714371        -1.914011
 H         0.732073        -2.287478         0.631984
 H        -0.593008         1.916533         1.034218
 H        -0.457937         1.802437        -0.859982
