19
Iteration:  1682
 C        -2.882574        -1.560648         1.673977
 C        -1.882627        -0.530871         1.122375
 C        -1.933096         0.410045        -0.191904
 C        -1.438276        -0.831428        -1.028241
 C        -0.714777        -1.130027         0.292470
 O        -0.249028        -2.431577         0.402015
 C         0.285611         0.027321         0.188401
 O         1.479058        -0.051098         0.145488
 C        -0.686821         1.222781        -0.059002
 H        -3.443466        -2.359064         1.174219
 H        -2.292143        -2.044206         2.459996
 H        -3.653644        -1.066733         2.208922
 H        -1.467480         0.091753         1.961627
 H        -2.802423         0.989260        -0.553420
 H        -2.287096        -1.506503        -1.229896
 H        -0.807076        -0.715546        -1.965765
 H         0.775853        -2.438532         0.308620
 H        -0.700371         1.772248         0.885196
 H        -0.115625         1.828657        -0.853083
