19
Iteration:  3271charge 0 multiplicity 1
 C        -2.964007        -1.452824         1.498825
 C        -1.804533        -0.521698         1.162101
 C        -2.003395         0.369924        -0.235093
 C        -1.570075        -0.862492        -0.982109
 C        -0.635463        -1.207789         0.327209
 O        -0.104488        -2.428325         0.626975
 C         0.314673        -0.028172         0.226351
 O         1.505477         0.032558         0.095326
 C        -0.702526         1.215342        -0.153916
 H        -3.663012        -1.826905         0.603432
 H        -2.565960        -2.369969         1.853922
 H        -3.759358        -1.032059         2.103161
 H        -1.685718         0.127869         1.978238
 H        -2.882878         0.945898        -0.144594
 H        -2.332736        -1.662567        -0.995873
 H        -1.026327        -0.767300        -1.887537
 H         0.746930        -2.654756         0.123048
 H        -0.688639         1.711250         0.830559
 H        -0.305724         1.830979        -0.999034
