19
Iteration:  1067
 C        -2.911216        -1.479940         1.525737
 C        -1.874281        -0.543166         1.128616
 C        -2.006244         0.422913        -0.135379
 C        -1.560869        -0.801386        -1.026874
 C        -0.709787        -1.122780         0.275323
 O        -0.086392        -2.400731         0.498542
 C         0.308883         0.065535         0.187886
 O         1.526586        -0.200403         0.105497
 C        -0.740618         1.228241         0.010673
 H        -3.192286        -2.279774         0.791397
 H        -2.456667        -2.242905         2.085743
 H        -3.435303        -1.047865         2.293870
 H        -1.561816         0.087546         1.994269
 H        -2.880954         0.903919        -0.487957
 H        -2.296868        -1.607055        -1.258220
 H        -0.995754        -0.594206        -2.026942
 H         0.807696        -2.480265         0.221099
 H        -0.642266         1.787201         0.968759
 H        -0.596647         1.971784        -0.700569
