19
Iteration:  2593charge 0 multiplicity 1
 C        -2.984820        -1.301447         1.621701
 C        -1.777970        -0.541729         1.134740
 C        -1.964422         0.252956        -0.148318
 C        -1.641025        -0.945321        -1.008697
 C        -0.634290        -1.189446         0.187018
 O        -0.113123        -2.501853         0.279516
 C         0.327397         0.017861         0.135174
 O         1.491631         0.102873         0.452919
 C        -0.643807         1.179250        -0.148346
 H        -2.627004        -2.404012         1.584036
 H        -3.150815        -1.048924         2.680490
 H        -3.905803        -1.182570         1.045523
 H        -1.304708         0.143549         1.977740
 H        -2.912558         0.804759        -0.463291
 H        -2.440603        -1.713800        -0.878458
 H        -1.466301        -0.883030        -2.075666
 H         0.762817        -2.418207         0.863761
 H        -0.692948         1.999689         0.602984
 H        -0.621433         1.534606        -1.197384
