19
Iteration:  3172
 C        -2.770362        -1.400455         1.757013
 C        -1.768019        -0.505905         0.990664
 C        -2.063515         0.374355        -0.263738
 C        -1.671929        -0.910996        -1.019559
 C        -0.706349        -1.153759         0.127413
 O        -0.069898        -2.429157         0.334121
 C         0.292398        -0.023038         0.166550
 O         1.417972        -0.031035         0.611534
 C        -0.656696         1.185326        -0.283854
 H        -3.084194        -2.429816         1.306153
 H        -2.451754        -1.590517         2.745500
 H        -3.717739        -0.909049         1.883358
 H        -1.440256         0.103886         1.810456
 H        -3.025994         0.838879        -0.344551
 H        -2.537696        -1.592301        -0.937175
 H        -1.295953        -0.907026        -2.021772
 H         0.873260        -2.384711         0.704328
 H        -0.628747         1.992270         0.440438
 H        -0.262907         1.569078        -1.271204
