19
Iteration:  3818
 C        -2.900910        -1.523032         1.512402
 C        -1.793433        -0.498976         1.125197
 C        -1.983452         0.299214        -0.171520
 C        -1.507459        -0.859963        -0.981985
 C        -0.629696        -1.136181         0.256542
 O        -0.282724        -2.452110         0.624558
 C         0.296031         0.061310         0.153112
 O         1.525373         0.022899         0.243022
 C        -0.682215         1.157802        -0.202439
 H        -3.546766        -1.848138         0.593539
 H        -2.383292        -2.223054         2.159819
 H        -3.487440        -0.949860         2.252819
 H        -1.451925         0.017097         2.078948
 H        -2.907850         0.796850        -0.430862
 H        -2.249820        -1.604280        -1.319718
 H        -1.031969        -0.345939        -1.942464
 H         0.701909        -2.413875         0.365750
 H        -0.639121         2.004011         0.456394
 H        -0.610304         1.544873        -1.243026
