19
Iteration:  3691charge 0 multiplicity 1
 C        -3.020894        -1.348325         1.595652
 C        -1.824020        -0.493593         1.150343
 C        -2.024078         0.303958        -0.139947
 C        -1.632272        -0.892212        -0.998298
 C        -0.589659        -1.180440         0.198717
 O        -0.095984        -2.478389         0.348476
 C         0.343396        -0.022130         0.128982
 O         1.524148         0.064173         0.382474
 C        -0.672253         1.120574        -0.206872
 H        -3.234887        -2.206379         0.945666
 H        -2.666319        -1.884995         2.571216
 H        -3.873190        -0.619954         1.749679
 H        -1.353721         0.153968         2.028747
 H        -2.930650         0.915793        -0.376485
 H        -2.212582        -1.856017        -0.866735
 H        -1.243518        -0.920044        -1.957530
 H         0.742228        -2.231995         0.881530
 H        -0.651161         1.756926         0.785510
 H        -0.522120         1.779419        -1.065712
