19
Iteration:  2871
 C        -2.872567        -1.372538         1.631400
 C        -1.693942        -0.505437         1.111287
 C        -1.969084         0.367720        -0.319627
 C        -1.705228        -1.053001        -0.988160
 C        -0.714274        -1.279944         0.185554
 O        -0.105645        -2.490383         0.395314
 C         0.340971         0.017162         0.118497
 O         1.443509         0.230962         0.577572
 C        -0.642617         1.118499        -0.300894
 H        -3.228782        -0.809921         2.518161
 H        -3.606240        -1.393051         0.724455
 H        -2.828660        -2.530095         1.701679
 H        -1.486839         0.183213         1.969808
 H        -2.909689         0.823296        -0.453604
 H        -2.644662        -1.610185        -0.824384
 H        -1.315328        -1.235215        -1.957438
 H         0.431245        -2.449971         1.282917
 H        -0.636677         2.007711         0.468291
 H        -0.229703         1.771883        -1.112477
