19
Iteration:   514
 C        -2.950473        -1.521441         1.381873
 C        -1.673711        -0.608328         1.190925
 C        -1.995826         0.356072        -0.001574
 C        -1.675077        -0.741363        -1.043193
 C        -0.641804        -1.139083         0.206310
 O        -0.169881        -2.424693         0.681539
 C         0.268811         0.029969         0.080392
 O         1.481480        -0.043179         0.118659
 C        -0.595944         1.208113        -0.060625
 H        -3.089773        -2.293463         0.609782
 H        -2.885076        -2.064491         2.353487
 H        -3.896551        -1.044250         1.542472
 H        -1.265283        -0.072376         2.032729
 H        -2.805668         1.146851         0.051636
 H        -2.560835        -1.514012        -1.133012
 H        -1.275082        -0.543599        -2.018019
 H         0.722765        -2.487530         0.354840
 H        -0.487719         1.982936         0.627727
 H        -0.408392         1.483148        -1.129167
