19
Iteration:   387
 C        -2.759449        -1.529288         1.548620
 C        -1.783120        -0.440234         1.158894
 C        -2.004874         0.465356        -0.099210
 C        -1.622572        -0.818541        -0.976824
 C        -0.691205        -1.135717         0.159057
 O        -0.231878        -2.488241         0.415847
 C         0.242072        -0.031648         0.171126
 O         1.450669        -0.023172         0.446136
 C        -0.624320         1.196900        -0.268589
 H        -2.999395        -2.151110         0.700426
 H        -2.190306        -2.358966         2.017855
 H        -3.690979        -1.253571         2.115705
 H        -1.137696        -0.026684         1.987103
 H        -3.031037         0.874441        -0.128881
 H        -2.482917        -1.477493        -1.044036
 H        -1.181981        -0.709358        -2.045477
 H         0.676711        -2.546909         0.248805
 H        -0.443674         2.028304         0.468072
 H        -0.242133         1.441330        -1.280569
