19
Iteration:   954
 C        -3.005719        -1.342043         1.777112
 C        -1.842141        -0.462474         1.110863
 C        -1.974227         0.353721        -0.117171
 C        -1.640402        -0.873482        -1.052797
 C        -0.609164        -1.235833         0.063879
 O         0.066979        -2.417598         0.247467
 C         0.243727        -0.068090         0.147029
 O         1.454514        -0.112716         0.382285
 C        -0.731171         1.164992        -0.081072
 H        -3.529579        -1.976961         1.023550
 H        -2.618089        -2.043248         2.569560
 H        -3.583440        -0.593856         2.337435
 H        -1.448252         0.112783         1.966534
 H        -2.839133         1.055279        -0.308164
 H        -2.395172        -1.707086        -1.159512
 H        -1.048873        -0.618620        -1.925881
 H         0.897947        -1.884098         0.639022
 H        -0.800826         1.948701         0.663250
 H        -0.401803         1.853290        -0.924746
