19
Iteration:  1738charge 0 multiplicity 1
 C        -2.940583        -1.446052         1.527655
 C        -1.621547        -0.554502         1.279739
 C        -1.938294         0.427903        -0.011265
 C        -1.730352        -0.811128        -0.928984
 C        -0.683636        -1.201747         0.192235
 O        -0.043662        -2.457504         0.326284
 C         0.242208         0.013769         0.012412
 O         1.333865        -0.084378         0.461177
 C        -0.627093         1.235230        -0.291503
 H        -2.858863        -2.101850         0.673789
 H        -2.832916        -2.232333         2.362512
 H        -3.882991        -0.946686         1.424231
 H        -1.089286        -0.107583         2.242654
 H        -2.839094         1.010407        -0.067160
 H        -2.662224        -1.427421        -0.895841
 H        -1.289393        -0.753806        -1.978852
 H         0.894954        -2.190753         0.610504
 H        -0.382760         2.150601         0.219948
 H        -0.249099         1.419680        -1.409128
