19
Iteration:  4269charge 0 multiplicity 1
 C        -2.771637        -1.459001         1.643096
 C        -1.727203        -0.397322         1.091596
 C        -2.014559         0.430717        -0.201187
 C        -1.695223        -0.915679        -1.105029
 C        -0.696196        -1.160822         0.099823
 O        -0.086447        -2.454644         0.424285
 C         0.242701        -0.005308         0.124743
 O         1.359076        -0.015736         0.604363
 C        -0.632185         1.086007        -0.266242
 H        -3.030640        -2.248842         1.024975
 H        -2.225654        -2.119330         2.379577
 H        -3.679613        -0.962233         2.032145
 H        -1.246701        -0.062723         1.986615
 H        -2.916853         1.150450        -0.265734
 H        -2.492072        -1.589168        -1.114945
 H        -1.236561        -0.810137        -2.011779
 H         0.825489        -2.069061         0.755637
 H        -0.645415         1.997645         0.482125
 H        -0.324232         1.410142        -1.225556
