19
Iteration:  2612
 C        -2.890640        -1.348117         1.563224
 C        -1.648793        -0.432094         1.117894
 C        -2.000245         0.383181        -0.200402
 C        -1.694469        -1.071559        -0.930426
 C        -0.634630        -1.233041         0.103186
 O        -0.104418        -2.468984         0.302598
 C         0.297448        -0.011190         0.156317
 O         1.471354         0.082466         0.504519
 C        -0.743973         1.155536        -0.179112
 H        -3.000673        -2.353819         1.421338
 H        -3.072865        -1.288081         2.760377
 H        -3.883128        -0.969068         1.133034
 H        -1.323810         0.166935         1.948223
 H        -2.903632         1.001507        -0.182834
 H        -2.508112        -1.793325        -1.033850
 H        -1.377034        -0.973324        -2.031653
 H         0.772453        -2.442802         0.864006
 H        -0.650084         1.779297         0.674932
 H        -0.272103         1.857378        -0.900171
