19
Iteration:  4178
 C        -3.077899        -1.439347         1.324291
 C        -1.825829        -0.548106         1.166875
 C        -2.000932         0.310092        -0.048622
 C        -1.519686        -0.883887        -0.960154
 C        -0.678694        -1.199748         0.309892
 O        -0.063980        -2.402941         0.635305
 C         0.335529         0.073866         0.164215
 O         1.547790        -0.046551         0.058837
 C        -0.687979         1.237487        -0.036479
 H        -3.594135        -1.893627         0.380915
 H        -2.769303        -2.348631         1.846569
 H        -3.854351        -0.816984         1.868215
 H        -1.381143        -0.002018         1.962094
 H        -2.944256         0.751008        -0.223333
 H        -2.316057        -1.649878        -0.870199
 H        -1.216603        -0.817815        -1.984312
 H         0.926051        -2.296021         0.394065
 H        -0.784480         2.022421         0.688470
 H        -0.469403         1.753181        -1.063571
