19
Iteration:  2521charge 0 multiplicity 1
 C        -2.864393        -1.548011         1.456438
 C        -1.819060        -0.460478         1.093060
 C        -1.928340         0.395877        -0.157903
 C        -1.722328        -0.889970        -0.988199
 C        -0.700623        -1.168462         0.249933
 O        -0.108582        -2.316908         0.594585
 C         0.307641        -0.013292         0.041652
 O         1.514185        -0.164425         0.194528
 C        -0.667482         1.262426         0.015061
 H        -2.711753        -1.840609         2.550980
 H        -3.863556        -1.051728         1.351705
 H        -2.799734        -2.425443         0.802268
 H        -1.472266        -0.012945         1.967784
 H        -2.917767         0.805863        -0.266942
 H        -2.602624        -1.523121        -1.218643
 H        -1.440207        -0.740209        -2.088103
 H         0.810112        -2.004463         0.654664
 H        -0.529887         1.770863         1.024126
 H        -0.360328         1.898371        -0.784314
