19
Iteration:  4333charge 0 multiplicity 1
 C        -2.898990        -1.399777         1.562540
 C        -1.854474        -0.458672         1.129894
 C        -1.970935         0.326580        -0.208391
 C        -1.600267        -0.870261        -0.961269
 C        -0.703147        -1.236457         0.244475
 O        -0.111397        -2.512248         0.370639
 C         0.295117         0.069440         0.160446
 O         1.524129         0.041372         0.422313
 C        -0.714453         1.138377        -0.197033
 H        -3.172066        -2.209150         0.918497
 H        -2.523336        -1.907903         2.600994
 H        -3.803497        -0.799786         2.042070
 H        -1.467544         0.158824         2.015081
 H        -2.958230         0.873740        -0.396310
 H        -2.366578        -1.587285        -1.136248
 H        -1.031250        -0.681650        -1.906477
 H         0.925909        -2.474236         0.375637
 H        -0.583102         2.121691         0.372798
 H        -0.395134         1.321923        -1.199173
