19
Iteration:  1490charge 0 multiplicity 1
 C        -2.870950        -1.489058         1.512837
 C        -1.688145        -0.520797         1.188201
 C        -1.991014         0.441078         0.027749
 C        -1.747607        -0.784495        -0.951893
 C        -0.632229        -1.191208         0.170018
 O        -0.081123        -2.412273         0.302294
 C         0.271946        -0.033089         0.113359
 O         1.408682        -0.075867         0.553797
 C        -0.640076         1.179586        -0.387650
 H        -3.024735        -2.183688         0.761467
 H        -2.721787        -2.043006         2.463069
 H        -3.768880        -0.945846         1.913741
 H        -1.383507        -0.136932         2.138602
 H        -2.882957         1.074594        -0.145742
 H        -2.675935        -1.309329        -0.806234
 H        -1.277349        -0.775028        -1.928744
 H         0.948139        -2.245500         0.370988
 H        -0.319791         2.108968         0.088169
 H        -0.692412         1.155282        -1.479057
