19
Iteration:  1979
 C        -2.960714        -1.524059         1.418962
 C        -1.894504        -0.602577         1.265778
 C        -1.953629         0.441069         0.110318
 C        -1.689263        -0.822213        -0.942805
 C        -0.637986        -1.176332         0.153206
 O        -0.098284        -2.401950         0.457502
 C         0.312588        -0.030944         0.027028
 O         1.524854         0.010867         0.189142
 C        -0.571830         1.177914        -0.166639
 H        -3.066599        -2.272637         0.701807
 H        -2.886827        -2.046933         2.494022
 H        -3.923174        -0.929981         1.561445
 H        -1.389236        -0.389719         2.285793
 H        -2.896272         1.011885         0.039116
 H        -2.565970        -1.479711        -1.035765
 H        -1.336475        -0.370670        -1.904491
 H         0.540662        -2.232704         1.112601
 H        -0.253225         1.991189         0.392106
 H        -0.434747         1.536410        -1.248253
