19
Iteration:  4076charge 0 multiplicity 1
 C        -2.985362        -1.455949         1.558900
 C        -1.795711        -0.624901         1.184219
 C        -1.975405         0.360522        -0.197306
 C        -1.616016        -0.826961        -0.962830
 C        -0.683789        -1.215777         0.269210
 O        -0.151965        -2.496517         0.476475
 C         0.308896         0.040672         0.206813
 O         1.527446         0.089144         0.302169
 C        -0.621291         1.237516        -0.243235
 H        -3.167859        -2.175609         0.722804
 H        -2.908150        -2.045469         2.527669
 H        -3.811822        -0.790290         1.842186
 H        -1.359998        -0.069236         2.034381
 H        -3.047282         0.636282        -0.349896
 H        -2.408413        -1.537368        -1.126197
 H        -1.037728        -0.622063        -1.972448
 H         0.778139        -2.596214         0.062322
 H        -0.426216         2.040736         0.415593
 H        -0.329264         1.612155        -1.256602
