19
Iteration:   426charge 0 multiplicity 1
 C        -3.065514        -1.388602         1.610780
 C        -1.731365        -0.577255         1.153349
 C        -2.064007         0.317239        -0.043718
 C        -1.622771        -0.846320        -1.042313
 C        -0.632809        -1.249560         0.055321
 O        -0.118357        -2.438117         0.436973
 C         0.336210         0.001440         0.106133
 O         1.559830         0.050360         0.372301
 C        -0.629352         1.180176        -0.143400
 H        -3.645724        -1.568842         0.669487
 H        -2.748486        -2.215166         2.299032
 H        -3.697927        -0.700448         2.151057
 H        -1.342214        -0.098444         2.043583
 H        -3.085235         0.816127        -0.118708
 H        -2.431813        -1.693670        -1.132677
 H        -1.239634        -0.698430        -2.037956
 H         0.866549        -2.452577         0.217482
 H        -0.437865         1.763321         0.736273
 H        -0.516020         1.919183        -0.988587
