19
Iteration:  2317charge 0 multiplicity 1
 C        -2.823881        -1.429855         1.662064
 C        -1.689956        -0.500549         1.154497
 C        -1.992479         0.387236        -0.034771
 C        -1.609200        -0.746334        -1.014769
 C        -0.693811        -1.201460         0.149372
 O        -0.195563        -2.547089         0.239512
 C         0.263059         0.013474         0.181289
 O         1.466516        -0.036596         0.390306
 C        -0.672645         1.191570        -0.186583
 H        -3.193241        -2.264156         1.145899
 H        -2.600270        -1.947539         2.720491
 H        -3.817868        -0.949961         1.919017
 H        -1.278802        -0.023728         2.013709
 H        -3.054139         0.710718        -0.048100
 H        -2.544521        -1.286180        -1.164846
 H        -1.165161        -0.561219        -2.022941
 H         0.800068        -2.455073         0.244276
 H        -0.545261         1.992610         0.554576
 H        -0.444779         1.665275        -1.235830
