19
Iteration:  4537charge 0 multiplicity 1
 C        -2.902109        -1.317518         1.590864
 C        -1.666956        -0.516341         1.175607
 C        -1.994712         0.362720        -0.151320
 C        -1.713834        -0.985099        -0.924421
 C        -0.748578        -1.234777         0.217172
 O         0.012162        -2.380896         0.291387
 C         0.256837        -0.027465         0.078564
 O         1.405719        -0.030805         0.510244
 C        -0.654766         1.166408        -0.268610
 H        -3.332644        -1.893690         0.561640
 H        -2.666324        -1.924442         2.467726
 H        -3.818533        -0.695170         1.818566
 H        -1.266639         0.021997         1.998568
 H        -2.939277         0.858634        -0.402830
 H        -2.457098        -1.721729        -0.973034
 H        -1.334384        -0.671884        -1.907462
 H         0.850285        -2.256781         0.853788
 H        -0.407476         1.809125         0.566654
 H        -0.358904         1.796237        -1.281926
