19
Iteration:   215charge 0 multiplicity 1
 C        -2.783401        -1.601112         1.611144
 C        -1.920271        -0.516387         1.055686
 C        -1.937418         0.409483        -0.188067
 C        -1.472927        -0.767670        -1.023429
 C        -0.758437        -1.171877         0.232218
 O        -0.233858        -2.386173         0.521968
 C         0.228791         0.030320         0.162671
 O         1.452386        -0.151245         0.087974
 C        -0.608674         1.300710         0.061267
 H        -3.558167        -1.963605         0.924892
 H        -2.054077        -2.320647         1.945116
 H        -3.346627        -1.285040         2.555877
 H        -1.457639        -0.032144         1.925472
 H        -2.873709         0.894732        -0.484871
 H        -2.221052        -1.502362        -1.270381
 H        -0.818046        -0.668541        -1.934457
 H         0.705190        -2.331406         0.597936
 H        -0.573689         1.906453         1.040056
 H        -0.415740         1.813711        -0.862545
