19
Iteration:  4609
 C        -2.827938        -1.472444         1.668710
 C        -1.856766        -0.489740         1.172144
 C        -2.015049         0.352465        -0.261158
 C        -1.563917        -0.864633        -1.052137
 C        -0.619967        -1.151761         0.187852
 O        -0.178977        -2.473227         0.458248
 C         0.274984         0.002459         0.130017
 O         1.457749        -0.032960         0.362856
 C        -0.677192         1.244611        -0.208116
 H        -3.355491        -1.851876         0.836708
 H        -2.460291        -2.363294         2.265089
 H        -3.411083        -0.835992         2.401770
 H        -1.252510         0.009630         2.039765
 H        -2.909354         0.809728        -0.701712
 H        -2.459590        -1.636596        -0.942655
 H        -1.033325        -0.654188        -2.122734
 H         0.720970        -2.420310         0.983372
 H        -0.629206         1.965151         0.670828
 H        -0.380663         1.738032        -1.078052
