19
Iteration:  3064charge 0 multiplicity 1
 C        -2.974525        -1.396559         1.475309
 C        -1.802921        -0.597898         1.174339
 C        -2.005440         0.325728        -0.142751
 C        -1.521935        -0.846120        -1.036591
 C        -0.644015        -1.245525         0.236082
 O         0.051061        -2.326999         0.708855
 C         0.214791         0.039675         0.137490
 O         1.413944        -0.158395         0.132359
 C        -0.734381         1.220914        -0.108479
 H        -3.670742        -0.976766         0.669036
 H        -2.855226        -2.343172         1.169277
 H        -3.395889        -1.279914         2.424152
 H        -1.367441        -0.011489         2.048438
 H        -2.866336         0.707408        -0.658087
 H        -2.381413        -1.561659        -1.241172
 H        -0.990811        -0.585371        -1.974772
 H         0.884333        -1.808689         0.913128
 H        -0.660685         2.034446         0.576479
 H        -0.646818         1.694203        -1.062135
