19
Iteration:  3418
 C        -2.970959        -1.303239         1.665342
 C        -1.782381        -0.609356         1.166864
 C        -1.936305         0.324229        -0.231050
 C        -1.580154        -0.941930        -1.046493
 C        -0.706248        -1.253484         0.098414
 O        -0.092726        -2.458149         0.402420
 C         0.307119         0.066876         0.105997
 O         1.484514         0.036616         0.434211
 C        -0.685294         1.207931        -0.189452
 H        -3.139840        -2.171486         1.063584
 H        -2.570766        -1.826447         2.700563
 H        -3.983185        -0.827551         1.932193
 H        -1.378731        -0.008313         2.028928
 H        -2.875527         0.930563        -0.236770
 H        -2.415762        -1.700654        -1.140384
 H        -1.047848        -0.834738        -2.047146
 H         0.689639        -2.266444         1.030858
 H        -0.859418         1.889034         0.663175
 H        -0.568238         1.780845        -1.082489
