19
Iteration:  1632charge 0 multiplicity 1
 C        -3.064640        -1.474167         1.423707
 C        -1.815163        -0.637811         1.132031
 C        -1.991702         0.381338        -0.002498
 C        -1.622946        -0.852577        -0.986669
 C        -0.676475        -1.166184         0.272021
 O        -0.056469        -2.355258         0.601474
 C         0.312536        -0.004813         0.047043
 O         1.547223        -0.074741         0.046433
 C        -0.598583         1.252080         0.006373
 H        -3.676003        -1.644942         0.506096
 H        -3.021294        -2.488824         1.961615
 H        -3.790486        -0.889365         2.161557
 H        -1.367407        -0.175945         1.999243
 H        -2.852916         1.014819        -0.212742
 H        -2.382712        -1.644920        -0.973073
 H        -1.304663        -0.636136        -2.008384
 H         0.873821        -2.216905         0.509074
 H        -0.383137         1.778970         0.955288
 H        -0.591431         1.920945        -0.832079
