19
Iteration:  4999charge 0 multiplicity 1
 C        -3.009891        -1.435705         1.453095
 C        -1.809457        -0.571822         1.169227
 C        -1.955627         0.382839        -0.113792
 C        -1.543940        -0.910747        -1.025228
 C        -0.623391        -1.173248         0.383383
 O        -0.105049        -2.377272         0.573916
 C         0.298980         0.065597         0.170237
 O         1.501180        -0.032381         0.077731
 C        -0.706743         1.168241        -0.121829
 H        -3.590290        -1.819272         0.658180
 H        -2.658016        -2.346270         2.063147
 H        -3.801885        -1.088670         2.250826
 H        -1.609855        -0.230089         2.160409
 H        -2.937521         1.004344        -0.290330
 H        -2.418069        -1.666895        -1.134374
 H        -1.026126        -0.711172        -2.097137
 H         0.890602        -2.456269         0.697937
 H        -0.693935         2.099392         0.590380
 H        -0.423002         1.584484        -1.166889
