19
Iteration:  3876
 C        -3.172120        -1.447042         1.415462
 C        -1.904935        -0.486482         1.147336
 C        -1.999482         0.371976        -0.108238
 C        -1.438149        -0.884558        -0.978120
 C        -0.648219        -1.115794         0.311059
 O         0.104693        -2.341140         0.615527
 C         0.284380         0.023447         0.171378
 O         1.497300        -0.207911         0.007655
 C        -0.747511         1.186235        -0.014496
 H        -3.462069        -2.202187         0.762271
 H        -3.106571        -1.972283         2.332719
 H        -4.032724        -0.761317         1.516472
 H        -1.490293        -0.011527         1.975573
 H        -2.997931         0.904104        -0.139409
 H        -2.198962        -1.766589        -1.108901
 H        -0.858167        -0.645006        -1.907343
 H         1.054801        -2.049039         0.457516
 H        -0.626891         1.917693         0.833800
 H        -0.528570         1.707200        -0.887703
