19
Iteration:  1315charge 0 multiplicity 1
 C        -3.044796        -1.441991         1.641539
 C        -1.851953        -0.590135         1.014410
 C        -1.971090         0.381815        -0.109733
 C        -1.587877        -0.813331        -1.036284
 C        -0.700415        -1.150830         0.215716
 O        -0.008182        -2.311234         0.455764
 C         0.268931        -0.011355         0.145871
 O         1.498941        -0.136266         0.153404
 C        -0.618448         1.165969         0.043412
 H        -3.640395        -2.040656         1.008901
 H        -2.543803        -2.201605         2.319139
 H        -3.992763        -0.945088         2.021436
 H        -1.512970        -0.090950         2.039257
 H        -2.894748         0.905532        -0.326372
 H        -2.261301        -1.715219        -1.227861
 H        -0.937617        -0.732455        -1.972350
 H         0.938063        -2.042310         0.451458
 H        -0.681554         1.823424         0.941934
 H        -0.389197         1.831065        -0.847171
