19
Iteration:  4787charge 0 multiplicity 1
 C        -2.816588        -1.525416         1.566874
 C        -1.774009        -0.517563         1.102896
 C        -1.940955         0.375990        -0.210500
 C        -1.757270        -0.887915        -0.991170
 C        -0.715144        -1.129772         0.237640
 O        -0.137392        -2.435462         0.526697
 C         0.285841         0.014223         0.139937
 O         1.471845         0.019799         0.376533
 C        -0.613166         1.156469        -0.221393
 H        -3.434842        -1.844418         0.648139
 H        -2.402437        -2.312378         2.158390
 H        -3.580316        -0.993309         2.105619
 H        -1.344926         0.097001         1.929194
 H        -2.873219         0.883675        -0.310516
 H        -2.551362        -1.474320        -1.212843
 H        -1.292842        -0.794756        -2.070891
 H         0.829733        -2.222731         0.659018
 H        -0.539010         1.928605         0.523112
 H        -0.323624         1.663980        -1.225242
