19
Iteration:  1681
 C        -2.880732        -1.550932         1.674362
 C        -1.884944        -0.531823         1.119128
 C        -1.930858         0.415191        -0.194801
 C        -1.429689        -0.832976        -1.028572
 C        -0.716036        -1.130536         0.301686
 O        -0.247364        -2.433058         0.399342
 C         0.280152         0.029514         0.185447
 O         1.472593        -0.052655         0.139640
 C        -0.687072         1.221295        -0.052998
 H        -3.451533        -2.395864         1.136088
 H        -2.302423        -2.035642         2.442077
 H        -3.641298        -1.080243         2.259618
 H        -1.482932         0.069569         1.935919
 H        -2.830818         0.998740        -0.513543
 H        -2.251651        -1.526592        -1.236869
 H        -0.777433        -0.737029        -1.931910
 H         0.779023        -2.436165         0.314641
 H        -0.685100         1.793369         0.899614
 H        -0.113388         1.799728        -0.847539
