19
Iteration:  1262
 C        -2.994303        -1.435398         1.537805
 C        -1.719098        -0.638834         1.220655
 C        -1.976100         0.352406         0.039327
 C        -1.617350        -0.825039        -1.000083
 C        -0.642453        -1.180681         0.217494
 O        -0.182802        -2.454607         0.283451
 C         0.326670         0.024490         0.111499
 O         1.509696         0.129741         0.353450
 C        -0.615039         1.067239        -0.231576
 H        -3.570835        -1.890192         0.745882
 H        -2.939533        -2.123373         2.425798
 H        -3.706616        -0.704002         1.873033
 H        -1.474157        -0.282918         2.237923
 H        -2.898045         0.928183        -0.099084
 H        -2.387284        -1.561306        -0.993786
 H        -1.102183        -0.447311        -1.874625
 H         0.591414        -2.456990         0.796343
 H        -0.529187         2.008801         0.358442
 H        -0.491996         1.470992        -1.265729
