19
Iteration:   839charge 0 multiplicity 1
 C        -2.890955        -1.490587         1.606287
 C        -1.861379        -0.494346         1.148077
 C        -2.014669         0.398289        -0.143889
 C        -1.499522        -0.772841        -1.025487
 C        -0.713120        -1.191706         0.253693
 O        -0.143023        -2.415619         0.446795
 C         0.286729        -0.018833         0.165766
 O         1.503803        -0.054739         0.141275
 C        -0.690930         1.161534        -0.077879
 H        -3.303474        -1.916904         0.664216
 H        -2.488497        -2.325186         2.245911
 H        -3.753093        -1.242176         2.224267
 H        -1.405118         0.084312         1.940943
 H        -2.918088         0.847718        -0.503898
 H        -2.259306        -1.538247        -1.002527
 H        -0.885803        -0.524798        -1.834407
 H         0.674491        -2.524894         0.830703
 H        -0.626345         1.811684         0.868726
 H        -0.339255         1.870946        -0.829337
