19
Iteration:  2661
 C        -2.858156        -1.533906         1.647300
 C        -1.874115        -0.558814         1.114868
 C        -1.986871         0.325367        -0.174858
 C        -1.659340        -0.739543        -1.111821
 C        -0.668195        -1.113343         0.308508
 O        -0.074287        -2.325355         0.501254
 C         0.261693         0.031369         0.137286
 O         1.437463        -0.111051         0.416961
 C        -0.599899         1.144775        -0.332906
 H        -3.254459        -2.307712         0.809444
 H        -2.481132        -2.072175         2.453370
 H        -3.782933        -1.114944         2.008625
 H        -1.437251        -0.018906         2.102339
 H        -2.926810         0.914999        -0.278830
 H        -2.218925        -1.685553        -1.081493
 H        -1.233162        -0.563298        -2.087802
 H         0.834603        -2.163074         0.633515
 H        -0.424575         2.123435         0.255743
 H        -0.405536         1.315005        -1.420914
