19
Iteration:  1680charge 0 multiplicity 1
 C        -2.879430        -1.541754         1.674364
 C        -1.886990        -0.532515         1.114947
 C        -1.930134         0.420130        -0.198689
 C        -1.421755        -0.834038        -1.029124
 C        -0.716427        -1.131797         0.309836
 O        -0.244328        -2.434820         0.397076
 C         0.273106         0.031389         0.182876
 O         1.467102        -0.054240         0.133789
 C        -0.685003         1.220231        -0.046262
 H        -3.447510        -2.419696         1.096183
 H        -2.308078        -2.034216         2.428353
 H        -3.637244        -1.085508         2.313892
 H        -1.500900         0.047303         1.916268
 H        -2.856058         1.002817        -0.470275
 H        -2.215568        -1.548717        -1.242813
 H        -0.751931        -0.756002        -1.893947
 H         0.763279        -2.430952         0.323521
 H        -0.669312         1.817388         0.910339
 H        -0.125575         1.768637        -0.838613
