19
Iteration:  3429
 C        -2.870914        -1.382632         1.654768
 C        -1.705671        -0.559324         1.021474
 C        -2.027525         0.363226        -0.207230
 C        -1.650218        -0.949917        -1.000073
 C        -0.625951        -1.202649         0.138308
 O        -0.163499        -2.482201         0.394211
 C         0.299563         0.065833         0.138821
 O         1.463043         0.019175         0.505693
 C        -0.703988         1.202710        -0.200949
 H        -3.057144        -2.338855         1.215480
 H        -2.575176        -1.496123         2.796083
 H        -3.838724        -0.735594         1.678607
 H        -1.220017         0.050464         1.815637
 H        -3.002042         0.841930        -0.453071
 H        -2.413338        -1.757625        -1.121351
 H        -1.134919        -0.836305        -2.003768
 H         0.717138        -2.277825         0.826597
 H        -0.524670         1.955822         0.586328
 H        -0.464945         1.666786        -1.140436
