19
Iteration:  2984
 C        -2.949535        -1.472410         1.440526
 C        -1.779421        -0.504720         1.149762
 C        -1.976324         0.381441        -0.193311
 C        -1.396714        -0.876533        -0.958145
 C        -0.615677        -1.186166         0.315838
 O        -0.211788        -2.442149         0.693660
 C         0.284722         0.015807         0.133326
 O         1.461030         0.024759         0.060137
 C        -0.766958         1.181314        -0.114849
 H        -3.910111        -0.981113         1.528677
 H        -2.955245        -2.388322         0.698536
 H        -2.900315        -1.953917         2.455111
 H        -1.478001         0.032471         2.115928
 H        -3.000918         0.775636        -0.470047
 H        -2.062040        -1.671925        -1.208982
 H        -0.776526        -0.670682        -1.868529
 H         0.513384        -2.330581         1.261417
 H        -0.629706         2.095522         0.493065
 H        -0.526366         1.423454        -1.203059
