19
Iteration:   413charge 0 multiplicity 1
 C        -2.925380        -1.392511         1.518678
 C        -1.728614        -0.626431         1.093538
 C        -1.920541         0.385452        -0.102031
 C        -1.770804        -0.863902        -1.011215
 C        -0.682708        -1.180190         0.178065
 O        -0.153167        -2.466407         0.460600
 C         0.363858         0.012296         0.083062
 O         1.521137         0.086030         0.426232
 C        -0.653628         1.144216        -0.138830
 H        -3.511125        -1.960029         0.756983
 H        -2.632871        -2.287059         2.081658
 H        -3.573854        -0.766899         2.153609
 H        -1.178144        -0.240918         1.974394
 H        -2.834694         0.959669        -0.094076
 H        -2.661440        -1.517350        -0.926506
 H        -1.461728        -0.714212        -2.129010
 H         0.717503        -2.517333         0.067076
 H        -0.624161         1.865772         0.689813
 H        -0.444912         1.634023        -1.073703
