19
Iteration:   330
 C        -2.841636        -1.435119         1.647651
 C        -1.819961        -0.497210         1.073023
 C        -1.929929         0.376090        -0.181540
 C        -1.653531        -0.879713        -1.059952
 C        -0.689269        -1.192241         0.155949
 O        -0.101864        -2.513559         0.351176
 C         0.234481        -0.034212         0.144564
 O         1.454515         0.011261         0.349946
 C        -0.641996         1.197049        -0.000780
 H        -3.354992        -2.010299         0.893157
 H        -2.441860        -1.847634         2.591495
 H        -3.552739        -0.688430         1.915954
 H        -1.380296         0.058971         1.937676
 H        -2.910913         0.943373        -0.372881
 H        -2.717080        -1.293937        -1.237995
 H        -1.111379        -0.780451        -1.938890
 H         0.807717        -2.311697         0.754998
 H        -0.659979         1.768225         0.907578
 H        -0.354485         1.888941        -0.881562
