19
Iteration:  2304charge 0 multiplicity 1
 C        -2.871849        -1.447955         1.749651
 C        -1.833572        -0.565229         1.183844
 C        -2.060709         0.415291        -0.113070
 C        -1.617215        -0.796468        -0.981009
 C        -0.675107        -1.190985         0.195954
 O        -0.139003        -2.438003         0.174065
 C         0.253875        -0.044227         0.155930
 O         1.471771        -0.077691         0.351306
 C        -0.611645         1.206482        -0.112102
 H        -2.903446        -2.238122         1.059670
 H        -2.481216        -1.787565         2.840975
 H        -3.729524        -0.769262         1.739253
 H        -1.335145         0.055620         1.952128
 H        -2.829150         1.133667        -0.379882
 H        -2.285522        -1.675484        -1.132181
 H        -1.048403        -0.480914        -1.903180
 H         0.871008        -2.347363         0.194969
 H        -0.368059         2.051001         0.573042
 H        -0.364606         1.494513        -1.163712
