19
Iteration:   126charge 0 multiplicity 1
 C        -3.046062        -1.421179         1.690903
 C        -1.828134        -0.480329         1.223918
 C        -2.003588         0.416156        -0.022997
 C        -1.693226        -0.838833        -0.963194
 C        -0.603750        -1.151786         0.124937
 O         0.035386        -2.443130         0.174360
 C         0.288733        -0.061309         0.152342
 O         1.505323        -0.088386         0.369229
 C        -0.657013         1.157912        -0.175698
 H        -3.112209        -2.413360         1.216995
 H        -3.213983        -1.509860         2.792879
 H        -4.070126        -0.982950         1.402085
 H        -1.341172         0.095780         2.017284
 H        -2.935060         1.085675        -0.105631
 H        -2.456753        -1.704679        -1.164702
 H        -1.263361        -0.731977        -1.986322
 H         0.915672        -2.136692         0.581813
 H        -0.453255         2.023505         0.524692
 H        -0.333333         1.440791        -1.203456
