19
Iteration:   157
 C        -2.954087        -1.424330         1.435090
 C        -1.587798        -0.570999         1.216166
 C        -1.926676         0.418716        -0.015490
 C        -1.765460        -0.851157        -0.938775
 C        -0.646325        -1.211967         0.191165
 O        -0.153391        -2.506016         0.367200
 C         0.263980         0.019213         0.086914
 O         1.460886         0.033186         0.322105
 C        -0.663483         1.201499        -0.136981
 H        -3.148617        -2.195264         0.669628
 H        -3.053349        -1.976319         2.422016
 H        -3.684133        -0.590145         1.391554
 H        -1.018425        -0.136578         2.057642
 H        -2.900422         0.953518         0.210616
 H        -2.548691        -1.719859        -0.776164
 H        -1.280429        -0.912030        -1.954271
 H         0.855092        -2.498872         0.450080
 H        -0.516311         1.970890         0.625312
 H        -0.402649         1.811880        -1.044428
