19
Iteration:  1022charge 0 multiplicity 1
 C        -2.884145        -1.596267         1.479950
 C        -1.789051        -0.563823         1.138837
 C        -1.974624         0.484228        -0.050203
 C        -1.641652        -0.752026        -0.952628
 C        -0.733735        -1.218893         0.251799
 O        -0.206688        -2.485981         0.501097
 C         0.334227        -0.027383         0.128986
 O         1.552028         0.044705         0.180513
 C        -0.652657         1.202973        -0.149962
 H        -3.052964        -2.225162         0.615061
 H        -2.595218        -2.225208         2.295311
 H        -3.600888        -0.973132         1.854493
 H        -1.314487        -0.128066         2.045862
 H        -2.906476         1.002821         0.018412
 H        -2.516633        -1.412261        -1.227466
 H        -1.045301        -0.504146        -1.867045
 H         0.595399        -2.442852         0.984264
 H        -0.636237         2.096786         0.465255
 H        -0.489565         1.639205        -1.113573
