19
Iteration:  3217charge 0 multiplicity 1
 C        -2.940986        -1.329781         1.578138
 C        -1.785840        -0.486990         1.181114
 C        -2.012379         0.337287        -0.203248
 C        -1.633866        -0.909262        -0.920483
 C        -0.648696        -1.224259         0.222442
 O         0.034253        -2.427394         0.316328
 C         0.274708         0.011666         0.145194
 O         1.443488        -0.047236         0.411698
 C        -0.720978         1.152931        -0.209434
 H        -3.112191        -2.295297         0.993760
 H        -2.811618        -1.620680         2.573330
 H        -3.860984        -0.761465         1.716453
 H        -1.547600         0.075893         2.068283
 H        -2.835660         0.939478        -0.511329
 H        -2.443169        -1.682044        -0.933952
 H        -1.350773        -0.742263        -1.936737
 H         0.874168        -2.407726         0.891954
 H        -0.475911         2.063997         0.349800
 H        -0.594088         1.516027        -1.245544
