19
Iteration:  4148charge 0 multiplicity 1
 C        -3.001652        -1.594086         1.388475
 C        -1.922086        -0.541712         1.112609
 C        -2.014488         0.389338        -0.091133
 C        -1.421144        -0.750807        -0.952735
 C        -0.729411        -1.166711         0.363768
 O        -0.075563        -2.364879         0.696660
 C         0.259035        -0.008765         0.109196
 O         1.486617        -0.121324        -0.002261
 C        -0.610518         1.234513        -0.049584
 H        -3.252116        -2.273745         0.610568
 H        -2.714119        -2.285383         2.226893
 H        -3.834478        -1.059420         1.906993
 H        -1.675511         0.053529         2.085351
 H        -2.942462         0.926237        -0.472435
 H        -2.183960        -1.477066        -1.181069
 H        -0.848843        -0.512872        -1.814500
 H         0.839687        -2.043406         0.344006
 H        -0.472042         2.105989         0.773614
 H        -0.346371         1.714512        -1.014826
