19
Iteration:  3776charge 0 multiplicity 1
 C        -2.785358        -1.433174         1.660523
 C        -1.786281        -0.486228         1.024846
 C        -1.963067         0.360382        -0.269014
 C        -1.698042        -0.879251        -1.040112
 C        -0.685970        -1.195389         0.135643
 O        -0.126060        -2.447880         0.463382
 C         0.242084         0.031749         0.164702
 O         1.421818        -0.004600         0.493869
 C        -0.642779         1.166891        -0.244870
 H        -3.456216        -2.102636         1.099185
 H        -2.260898        -2.102626         2.240368
 H        -3.300719        -0.979065         2.480847
 H        -1.476152         0.170513         1.747258
 H        -2.831989         0.997569        -0.382677
 H        -2.552379        -1.601764        -0.954682
 H        -1.008851        -0.878170        -1.946485
 H         0.808537        -2.465808         0.801852
 H        -0.845993         1.884562         0.586946
 H        -0.115484         1.652238        -1.031500
