19
Iteration:   253charge 0 multiplicity 1
 C        -2.998934        -1.459407         1.406140
 C        -1.823945        -0.548212         1.164673
 C        -2.009711         0.338102        -0.005404
 C        -1.632113        -0.806230        -0.925913
 C        -0.706709        -1.155590         0.267027
 O        -0.074115        -2.404686         0.494176
 C         0.294581        -0.025207         0.052782
 O         1.542803        -0.054015         0.114431
 C        -0.585238         1.172372        -0.001918
 H        -3.595814        -1.750078         0.536531
 H        -2.560117        -2.441786         1.729249
 H        -3.606031        -1.053944         2.176316
 H        -1.557988         0.055076         2.076912
 H        -2.972193         0.893916        -0.164103
 H        -2.515328        -1.530214        -1.104471
 H        -1.166512        -0.573737        -1.867488
 H         0.822249        -2.037473         0.700025
 H        -0.428187         1.884430         0.761449
 H        -0.505334         1.813064        -0.933057
