19
Iteration:  1273
 C        -3.021818        -1.352945         1.512986
 C        -1.759813        -0.631264         1.204440
 C        -1.931321         0.373202        -0.044667
 C        -1.595699        -0.896389        -0.907009
 C        -0.627904        -1.226237         0.217245
 O        -0.133959        -2.555748         0.297312
 C         0.288581         0.029902         0.139695
 O         1.497172         0.105352         0.302920
 C        -0.702574         1.233056        -0.137344
 H        -3.413342        -1.949006         0.687738
 H        -2.727508        -2.098173         2.309015
 H        -3.674112        -0.584674         1.872194
 H        -1.218557        -0.160993         2.091608
 H        -2.797639         1.041581        -0.101892
 H        -2.264539        -1.616254        -1.320332
 H        -1.307958        -0.627816        -1.928882
 H         0.783682        -2.603190         0.623471
 H        -0.489858         1.980683         0.675425
 H        -0.630065         1.584462        -1.197205
