19
Iteration:  3140
 C        -2.778366        -1.418107         1.653042
 C        -1.613794        -0.473435         1.146603
 C        -2.016143         0.271817        -0.165630
 C        -1.582978        -0.846558        -1.053770
 C        -0.686175        -1.238302         0.167911
 O        -0.210541        -2.462540         0.429917
 C         0.300531        -0.037615         0.013208
 O         1.361764         0.102453         0.557643
 C        -0.701671         1.138634        -0.303897
 H        -3.288364        -1.857310         0.705556
 H        -2.566798        -2.223376         2.273417
 H        -3.471828        -0.734885         2.113701
 H        -1.080588         0.138915         1.930570
 H        -3.016986         0.632114        -0.243003
 H        -2.490360        -1.440568        -1.321559
 H        -1.020020        -0.579462        -1.933949
 H         0.402761        -2.390925         1.140388
 H        -0.600125         1.909563         0.448307
 H        -0.483193         1.662568        -1.260218
