19
Iteration:  1323
 C        -3.072518        -1.527976         1.612935
 C        -1.909323        -0.616342         1.115802
 C        -1.996321         0.412079        -0.108096
 C        -1.514369        -0.779549        -1.068269
 C        -0.714471        -1.162405         0.214239
 O         0.011185        -2.315896         0.498741
 C         0.290382         0.001272         0.130209
 O         1.488018        -0.179198         0.141992
 C        -0.609611         1.227203        -0.020706
 H        -3.542033        -2.225783         0.908161
 H        -2.624495        -2.152715         2.417784
 H        -3.691917        -0.771608         2.212693
 H        -1.519842        -0.046180         1.945041
 H        -2.930455         0.965160        -0.240793
 H        -2.437734        -1.415998        -1.263607
 H        -1.122610        -0.626823        -2.097159
 H         0.979416        -1.973451         0.549431
 H        -0.596148         1.841330         0.865034
 H        -0.319240         1.784777        -0.926700
