19
Iteration:   368charge 0 multiplicity 1
 C        -2.702964        -1.602019         1.641701
 C        -1.797893        -0.458437         1.146921
 C        -2.025715         0.373390        -0.154047
 C        -1.623263        -0.768196        -1.044915
 C        -0.711728        -1.126252         0.211105
 O        -0.263532        -2.364300         0.362537
 C         0.304501         0.020390         0.102747
 O         1.488898        -0.148361         0.464515
 C        -0.619563         1.192794        -0.233295
 H        -3.164231        -2.371640         1.007460
 H        -2.365335        -2.314278         2.376777
 H        -3.544575        -1.033533         2.165087
 H        -1.642770         0.228017         2.010278
 H        -2.809791         0.987181        -0.471697
 H        -2.275870        -1.537088        -1.333338
 H        -0.933061        -0.470605        -1.997442
 H         0.551208        -2.432898         0.813976
 H        -0.685783         2.072065         0.470990
 H        -0.754081         1.608178        -1.176242
