19
Iteration:  3001charge 0 multiplicity 1
 C        -2.989907        -1.525844         1.375189
 C        -1.872983        -0.492448         1.131723
 C        -1.950916         0.290796        -0.119996
 C        -1.441057        -0.968390        -0.889548
 C        -0.655578        -1.115819         0.497748
 O        -0.209635        -2.441150         0.631717
 C         0.325056         0.118717         0.247341
 O         1.479025         0.028738        -0.051974
 C        -0.619316         1.245377        -0.203777
 H        -3.990030        -1.126170         1.136707
 H        -2.918216        -2.407197         0.751961
 H        -3.018442        -1.855458         2.438755
 H        -1.769452         0.136448         1.998124
 H        -2.817172         0.809814        -0.455996
 H        -2.220221        -1.776494        -0.888786
 H        -0.897529        -0.869972        -1.818410
 H         0.705642        -2.560257         0.767743
 H        -0.685131         2.034691         0.619613
 H        -0.377969         1.703427        -1.148874
