19
Iteration:  4781
 C        -2.838669        -1.507433         1.542798
 C        -1.781554        -0.488757         1.119242
 C        -1.953779         0.384638        -0.163306
 C        -1.680607        -0.862011        -1.023974
 C        -0.688198        -1.169033         0.215706
 O        -0.125611        -2.458369         0.545532
 C         0.269031         0.039334         0.181590
 O         1.476320         0.006191         0.350627
 C        -0.647061         1.165474        -0.283674
 H        -3.385140        -1.952331         0.769449
 H        -2.411148        -2.357187         2.160505
 H        -3.612348        -0.977264         2.171808
 H        -1.393028         0.004273         2.053404
 H        -2.909094         1.000135        -0.276143
 H        -2.700996        -1.500379        -1.163975
 H        -1.305163        -0.808266        -2.017469
 H         0.797179        -2.372418         0.608395
 H        -0.604791         1.886428         0.585176
 H        -0.370924         1.679988        -1.147102
