19
Iteration:  3999charge 0 multiplicity 1
 C        -2.855569        -1.439837         1.708737
 C        -1.785705        -0.483693         1.093768
 C        -2.039994         0.319256        -0.229006
 C        -1.618195        -0.926961        -1.047422
 C        -0.683151        -1.146537         0.098043
 O        -0.107460        -2.380325         0.394232
 C         0.303905         0.045627         0.118662
 O         1.441073        -0.085758         0.576005
 C        -0.658160         1.175788        -0.264521
 H        -3.638028        -1.849056         1.091079
 H        -2.239892        -2.255192         2.244008
 H        -3.370789        -1.007753         2.576369
 H        -1.330852         0.167939         1.839335
 H        -3.024767         0.763548        -0.552258
 H        -2.412920        -1.657227        -1.061902
 H        -1.275070        -0.686814        -2.112834
 H         0.771790        -2.092144         0.625712
 H        -0.616421         1.991092         0.457541
 H        -0.296093         1.670625        -1.226675
