19
Iteration:  4323
 C        -2.849741        -1.446269         1.592029
 C        -1.773116        -0.463593         1.145648
 C        -2.008898         0.328006        -0.170556
 C        -1.579838        -0.905659        -0.977906
 C        -0.636264        -1.141800         0.237542
 O        -0.188243        -2.449619         0.348235
 C         0.270878        -0.001001         0.181411
 O         1.423668         0.040126         0.472304
 C        -0.620077         1.115135        -0.272936
 H        -3.154154        -2.180796         0.885260
 H        -2.460178        -1.903987         2.604128
 H        -3.820427        -0.828094         1.769024
 H        -1.371392         0.132442         1.980044
 H        -3.012026         0.753210        -0.509801
 H        -2.400658        -1.546913        -1.076410
 H        -1.146553        -0.754759        -1.927918
 H         0.822104        -2.289893         0.324636
 H        -0.570952         2.048500         0.406269
 H        -0.426240         1.417962        -1.260744
