19
Iteration:   880
 C        -2.870908        -1.549356         1.504567
 C        -1.699559        -0.517208         1.224569
 C        -1.966595         0.417733        -0.091972
 C        -1.686583        -0.844876        -0.964647
 C        -0.644096        -1.131387         0.169019
 O        -0.301337        -2.435363         0.441337
 C         0.340704        -0.029495         0.101944
 O         1.525659         0.071382         0.340122
 C        -0.646488         1.152723        -0.231446
 H        -3.203738        -2.211135         0.629956
 H        -2.422292        -2.416680         2.034525
 H        -3.666642        -1.209753         2.196358
 H        -1.284933        -0.325371         2.252377
 H        -2.943482         0.968966        -0.185087
 H        -2.600298        -1.596299        -0.956212
 H        -1.319179        -0.654229        -2.039098
 H         0.687047        -2.299786         0.766918
 H        -0.485984         1.965043         0.507639
 H        -0.405153         1.745822        -1.116112
