19
Iteration:  1346
 C        -2.972891        -1.579582         1.461227
 C        -1.799553        -0.562693         1.188324
 C        -1.978954         0.465514        -0.042698
 C        -1.592070        -0.670046        -0.995402
 C        -0.710926        -1.145012         0.320900
 O        -0.028004        -2.379335         0.589030
 C         0.246439        -0.020093         0.107381
 O         1.444477        -0.202385         0.127991
 C        -0.628389         1.235665        -0.144771
 H        -3.139033        -2.110563         0.547976
 H        -2.555823        -2.452706         2.072948
 H        -3.938223        -1.140386         2.002433
 H        -1.402858        -0.009257         2.058372
 H        -2.928902         0.976266        -0.218584
 H        -2.291359        -1.436973        -1.465045
 H        -1.032925        -0.507737        -1.937704
 H         0.873809        -2.168820         0.481750
 H        -0.665480         2.016579         0.593186
 H        -0.482152         1.567925        -1.200992
