19
Iteration:   254
 C        -3.009099        -1.464415         1.397994
 C        -1.824272        -0.549315         1.170149
 C        -2.000118         0.348213         0.010181
 C        -1.625563        -0.809966        -0.922592
 C        -0.706933        -1.160797         0.269487
 O        -0.072146        -2.405723         0.491368
 C         0.290300        -0.027673         0.047849
 O         1.541993        -0.043735         0.117430
 C        -0.587024         1.162578        -0.008954
 H        -3.617432        -1.741379         0.528506
 H        -2.564579        -2.439768         1.756088
 H        -3.618222        -1.024799         2.186608
 H        -1.562829         0.087106         2.071154
 H        -2.976023         0.916190        -0.158372
 H        -2.561356        -1.522663        -1.106490
 H        -1.160461        -0.573043        -1.910473
 H         0.877278        -2.055599         0.667661
 H        -0.418767         1.891474         0.743707
 H        -0.493638         1.780016        -0.950215
