19
Iteration:  4816charge 0 multiplicity 1
 C        -2.826808        -1.469964         1.636995
 C        -1.835869        -0.437618         1.097898
 C        -1.965224         0.390495        -0.166435
 C        -1.665274        -0.917195        -1.041345
 C        -0.593120        -1.178697         0.163383
 O        -0.098593        -2.411418         0.432204
 C         0.251305         0.041097         0.142409
 O         1.441832        -0.094305         0.468872
 C        -0.688665         1.173589        -0.294738
 H        -3.342626        -1.924734         0.762849
 H        -2.306278        -2.275128         2.201632
 H        -3.459450        -0.868239         2.335760
 H        -1.369156         0.158511         1.868657
 H        -2.948972         0.852965        -0.261432
 H        -2.660482        -1.646070        -0.859138
 H        -1.226085        -0.748385        -1.998324
 H         0.763866        -2.153266         0.789789
 H        -0.662345         1.870718         0.635841
 H        -0.531747         1.715951        -1.211272
