19
Iteration:  3736
 C        -2.922053        -1.330966         1.640806
 C        -1.721047        -0.507036         1.140731
 C        -1.958625         0.378021        -0.135781
 C        -1.668007        -0.938800        -0.972129
 C        -0.604624        -1.187621         0.166460
 O        -0.025264        -2.394604         0.315577
 C         0.242819         0.003889         0.125308
 O         1.368303        -0.068640         0.596926
 C        -0.697525         1.138604        -0.398914
 H        -3.240637        -2.086984         0.919591
 H        -2.559474        -2.048952         2.495882
 H        -3.743884        -0.585640         1.833352
 H        -1.296514        -0.057260         2.163247
 H        -2.964811         0.889655        -0.085455
 H        -2.480219        -1.736583        -1.078425
 H        -1.343256        -0.666151        -1.928312
 H         0.992855        -2.335270         0.451915
 H        -0.613384         1.978061         0.398078
 H        -0.426360         1.500699        -1.424297
