19
Iteration:  2125charge 0 multiplicity 1
 C        -2.973824        -1.489179         1.517075
 C        -1.780023        -0.555581         1.199447
 C        -1.983600         0.423740        -0.016472
 C        -1.717542        -0.795628        -0.873714
 C        -0.627707        -1.187351         0.238136
 O        -0.049535        -2.408238         0.332216
 C         0.266208        -0.010713         0.126494
 O         1.491019        -0.072027         0.254632
 C        -0.634300         1.172849        -0.174655
 H        -3.828126        -1.285556         0.746428
 H        -2.731596        -2.495279         1.511791
 H        -3.419569        -1.296712         2.514476
 H        -1.337873        -0.022824         2.060204
 H        -2.934680         0.998702         0.040117
 H        -2.564705        -1.469637        -1.051016
 H        -1.160655        -0.611814        -1.809065
 H         0.881225        -2.245980         0.268534
 H        -0.347031         2.062673         0.418128
 H        -0.344823         1.463809        -1.144999
