19
Iteration:  2642charge 0 multiplicity 1
 C        -2.902623        -1.505501         1.641664
 C        -1.733674        -0.505370         1.145852
 C        -2.008500         0.444247        -0.137693
 C        -1.624445        -0.919330        -1.028338
 C        -0.700531        -1.200066         0.132189
 O        -0.074934        -2.401729         0.435417
 C         0.273771         0.011835         0.148839
 O         1.441910        -0.038765         0.501529
 C        -0.680567         1.171782        -0.331293
 H        -2.957455        -2.425405         1.051808
 H        -2.708440        -1.726089         2.718514
 H        -3.886994        -0.985101         1.602290
 H        -1.323764         0.074515         1.964555
 H        -2.867590         1.044474        -0.262628
 H        -2.527137        -1.463638        -1.241324
 H        -1.090132        -0.612800        -1.975077
 H         0.816847        -2.100594         0.513385
 H        -0.503188         2.050226         0.319823
 H        -0.441716         1.331895        -1.390231
