19
Iteration:  3509
 C        -2.839536        -1.357144         1.565190
 C        -1.747441        -0.519946         1.127342
 C        -2.045547         0.339908        -0.153003
 C        -1.665438        -0.885640        -1.048328
 C        -0.708799        -1.194918         0.162123
 O        -0.064269        -2.440867         0.455361
 C         0.281806        -0.052297         0.082321
 O         1.441545        -0.001104         0.498870
 C        -0.676941         1.186387        -0.228088
 H        -3.087313        -2.215357         0.875131
 H        -2.547691        -1.801327         2.582941
 H        -3.790494        -0.788101         1.658904
 H        -1.534025         0.192274         1.997744
 H        -2.974179         0.909703        -0.194624
 H        -2.384805        -1.786205        -1.022320
 H        -1.097125        -0.849971        -2.030635
 H         0.888157        -2.179315         0.713455
 H        -0.360922         1.961297         0.476380
 H        -0.462884         1.544470        -1.271606
