19
Iteration:  1218
 C        -2.707457        -1.510516         1.601867
 C        -1.738840        -0.426523         1.078202
 C        -1.981210         0.418603        -0.197358
 C        -1.656625        -0.866254        -0.968145
 C        -0.717792        -1.157026         0.171105
 O        -0.153605        -2.405772         0.334381
 C         0.209709        -0.049640         0.123277
 O         1.375017        -0.117820         0.481160
 C        -0.640381         1.213423        -0.136528
 H        -3.224521        -2.049964         0.841944
 H        -1.978467        -2.109754         2.230234
 H        -3.594952        -1.206027         2.125007
 H        -1.374373         0.215096         1.872801
 H        -2.914067         0.956673        -0.279649
 H        -2.548040        -1.464482        -0.871293
 H        -1.209021        -0.797189        -1.981533
 H         0.794990        -2.294784         0.409915
 H        -0.440814         1.922183         0.699595
 H        -0.405299         1.851588        -1.024729
