19
Iteration:  3380
 C        -3.083263        -1.356264         1.500364
 C        -1.881358        -0.491590         1.166749
 C        -1.953079         0.312654        -0.100932
 C        -1.501548        -0.918784        -0.965753
 C        -0.674066        -1.192892         0.311320
 O         0.002138        -2.437225         0.471745
 C         0.289506         0.020234         0.217801
 O         1.526011        -0.017021         0.191386
 C        -0.735121         1.154501        -0.173543
 H        -3.695672        -1.586208         0.518799
 H        -2.701512        -2.241934         1.938315
 H        -3.710420        -0.864399         2.249027
 H        -1.343762        -0.164041         2.020823
 H        -2.868019         0.849573        -0.314513
 H        -2.280857        -1.672732        -1.028029
 H        -1.130274        -0.800085        -1.952467
 H         0.922145        -2.059864         0.305598
 H        -0.922226         2.023070         0.495688
 H        -0.382597         1.561785        -1.170888
