19
Iteration:  1387charge 0 multiplicity 1
 C        -2.972191        -1.543446         1.521314
 C        -1.796888        -0.521237         1.147095
 C        -1.967397         0.387629        -0.151547
 C        -1.583095        -0.828384        -0.966512
 C        -0.682525        -1.193984         0.266014
 O        -0.243311        -2.503717         0.532655
 C         0.353106         0.046840         0.098037
 O         1.593244         0.029713         0.123531
 C        -0.650858         1.254798        -0.064694
 H        -3.582371        -2.054541         0.755261
 H        -2.606302        -2.386158         2.078368
 H        -3.826230        -1.099077         2.024391
 H        -1.480733        -0.088363         2.074198
 H        -2.885517         0.967185        -0.060531
 H        -2.478769        -1.457878        -1.149895
 H        -1.208676        -0.761431        -1.994537
 H         0.784335        -2.397183         0.641747
 H        -0.590047         1.811432         0.881684
 H        -0.258918         1.938792        -0.811434
