19
Iteration:   213
 C        -2.782784        -1.600742         1.617336
 C        -1.942948        -0.520766         1.066238
 C        -1.951082         0.414231        -0.186241
 C        -1.479938        -0.760810        -1.017957
 C        -0.762601        -1.177395         0.237588
 O        -0.229764        -2.388340         0.521664
 C         0.239812         0.027072         0.171602
 O         1.451179        -0.136047         0.092214
 C        -0.594063         1.287026         0.044082
 H        -3.530263        -1.967268         0.898075
 H        -2.015196        -2.326655         1.958219
 H        -3.354540        -1.269308         2.561826
 H        -1.400740        -0.025383         1.904486
 H        -2.917586         0.910123        -0.540681
 H        -2.243367        -1.591449        -1.365670
 H        -0.802805        -0.565976        -1.958851
 H         0.713382        -2.410611         0.528535
 H        -0.539935         1.868786         1.008487
 H        -0.314889         1.859019        -0.871941
