19
Iteration:  3291
 C        -2.893000        -1.564933         1.471786
 C        -1.912022        -0.481168         1.103348
 C        -1.953344         0.330356        -0.127601
 C        -1.451358        -0.899180        -0.945492
 C        -0.688561        -1.094626         0.356674
 O        -0.208461        -2.323930         0.660172
 C         0.324325         0.102199         0.095904
 O         1.509311        -0.102174         0.030779
 C        -0.673817         1.200617        -0.020994
 H        -3.773574        -1.710048         0.596200
 H        -2.519379        -2.570240         1.613868
 H        -3.561805        -1.290395         2.281347
 H        -1.676593        -0.019933         2.048584
 H        -2.832418         0.824549        -0.496564
 H        -2.237543        -1.674150        -1.087596
 H        -0.854856        -0.899306        -1.839931
 H         0.677547        -2.533855         0.204069
 H        -0.820833         2.057756         0.632380
 H        -0.375155         1.634690        -1.064924
