19
Iteration:  1285charge 0 multiplicity 1
 C        -3.001596        -1.323581         1.539495
 C        -1.715819        -0.519597         1.142223
 C        -1.975886         0.353508        -0.071301
 C        -1.590422        -0.887888        -0.972329
 C        -0.641635        -1.274570         0.218307
 O        -0.091055        -2.599285         0.316011
 C         0.286974         0.037915         0.152998
 O         1.482452         0.054324         0.257699
 C        -0.712659         1.260747        -0.039608
 H        -3.451031        -1.810288         0.608435
 H        -2.876959        -2.099448         2.320825
 H        -3.842860        -0.774633         1.864822
 H        -1.369672        -0.026413         2.065448
 H        -3.031349         0.624129        -0.223332
 H        -2.408572        -1.521820        -0.795354
 H        -0.965978        -0.820307        -1.861473
 H         0.921002        -2.402441         0.444338
 H        -0.732949         2.020392         0.799501
 H        -0.423022         1.881814        -0.905640
