19
Iteration:  1217
 C        -2.705890        -1.507827         1.610143
 C        -1.733267        -0.426231         1.072723
 C        -1.989273         0.425007        -0.202758
 C        -1.648763        -0.873673        -0.978659
 C        -0.720601        -1.164785         0.167715
 O        -0.154133        -2.396691         0.337562
 C         0.209044        -0.055146         0.123416
 O         1.375468        -0.121166         0.482163
 C        -0.640181         1.213720        -0.128538
 H        -3.179862        -2.021799         0.857837
 H        -2.002319        -2.135741         2.226261
 H        -3.599296        -1.236303         2.137964
 H        -1.367364         0.225679         1.885443
 H        -2.922505         0.954160        -0.296193
 H        -2.548461        -1.459608        -0.861029
 H        -1.225049        -0.763534        -1.958829
 H         0.772668        -2.284791         0.387929
 H        -0.453973         1.921628         0.695078
 H        -0.410824         1.863709        -1.018723
