19
Iteration:  1607charge 0 multiplicity 1
 C        -3.116132        -1.405286         1.293691
 C        -1.778380        -0.611579         1.202086
 C        -1.930013         0.421227         0.012875
 C        -1.760644        -0.809669        -0.881157
 C        -0.650792        -1.208001         0.284959
 O         0.060559        -2.349875         0.569421
 C         0.306819        -0.060427         0.105372
 O         1.510477        -0.041477         0.106956
 C        -0.626290         1.161050        -0.091854
 H        -3.496379        -1.752773         0.375514
 H        -2.904231        -2.451653         1.820106
 H        -3.957013        -1.136382         2.026526
 H        -1.335726        -0.214924         2.212733
 H        -2.745102         1.169170         0.028085
 H        -2.620896        -1.494252        -0.927050
 H        -1.299166        -0.619119        -1.911761
 H         0.934364        -2.500492         0.079365
 H        -0.561388         1.915910         0.651574
 H        -0.611790         1.614470        -1.145122
