19
Iteration:  2569charge 0 multiplicity 1
 C        -2.997507        -1.431183         1.663366
 C        -1.825197        -0.591392         1.180328
 C        -2.023995         0.392724        -0.108784
 C        -1.526484        -0.811128        -0.999873
 C        -0.693400        -1.158075         0.204823
 O        -0.082217        -2.485829         0.380511
 C         0.263737         0.011457         0.169114
 O         1.476361         0.022654         0.351322
 C        -0.607338         1.151357        -0.267730
 H        -2.613853        -2.384943         1.917018
 H        -3.550679        -0.941774         2.624311
 H        -3.716433        -1.582813         0.774939
 H        -1.255362        -0.140359         2.079824
 H        -2.953994         0.960579        -0.353778
 H        -2.269019        -1.554708        -1.320221
 H        -0.917254        -0.805405        -1.965402
 H         0.808199        -2.244461         0.530798
 H        -0.586105         1.985675         0.392267
 H        -0.465734         1.467332        -1.340441
