19
Iteration:  2246charge 0 multiplicity 1
 C        -2.912437        -1.367903         1.528993
 C        -1.716151        -0.647093         1.201248
 C        -1.946868         0.375630         0.048719
 C        -1.693965        -0.788900        -0.971067
 C        -0.673308        -1.219686         0.193240
 O        -0.087060        -2.368144         0.428218
 C         0.236047        -0.059929         0.107066
 O         1.463308        -0.058625         0.170177
 C        -0.640788         1.170780        -0.099361
 H        -3.156799        -1.951211         0.544261
 H        -2.799204        -2.124948         2.261638
 H        -3.787601        -0.768036         1.659829
 H        -1.259340        -0.096257         2.078734
 H        -2.930384         0.847384        -0.000487
 H        -2.593115        -1.396336        -1.174602
 H        -1.260606        -0.493347        -1.925296
 H         0.855594        -2.249776         0.166913
 H        -0.437144         1.830639         0.770024
 H        -0.614881         1.784969        -0.920626
