19
Iteration:  2438charge 0 multiplicity 1
 C        -2.989107        -1.378291         1.432268
 C        -1.785484        -0.570315         1.149336
 C        -1.915572         0.389654        -0.071261
 C        -1.683720        -0.859931        -0.995745
 C        -0.685424        -1.176950         0.203790
 O        -0.018511        -2.488948         0.517275
 C         0.269931         0.042804         0.145193
 O         1.494637        -0.007546         0.077536
 C        -0.689287         1.120460         0.048048
 H        -3.744243        -0.696983         1.654304
 H        -3.393042        -2.164247         0.682394
 H        -2.851675        -1.914178         2.408652
 H        -1.475860        -0.075489         2.141671
 H        -2.780541         1.044027        -0.203947
 H        -2.549674        -1.488188        -0.860539
 H        -1.216704        -0.697177        -1.979424
 H         0.900258        -2.213696         0.662875
 H        -0.455048         1.622580         0.976045
 H        -0.439057         1.827602        -0.806426
