19
Iteration:  2022
 C        -2.756404        -1.525896         1.594783
 C        -1.764941        -0.451749         1.114921
 C        -1.973906         0.367946        -0.070409
 C        -1.644195        -0.840149        -0.994247
 C        -0.703524        -1.132491         0.111151
 O        -0.171715        -2.385663         0.403856
 C         0.256781         0.041143         0.134869
 O         1.420437        -0.164659         0.343122
 C        -0.627525         1.212885        -0.063396
 H        -2.865963        -2.326666         0.933650
 H        -2.464164        -2.020115         2.615692
 H        -3.751438        -1.091031         1.789677
 H        -1.362636         0.350604         1.872714
 H        -2.834779         0.943877        -0.357118
 H        -2.450834        -1.581524        -1.024568
 H        -1.207837        -0.600867        -1.986349
 H         0.637553        -2.402482        -0.211569
 H        -0.627048         1.899998         0.716579
 H        -0.625916         1.684551        -1.088071
