19
Iteration:   682charge 0 multiplicity 1
 C        -2.809736        -1.497743         1.683694
 C        -1.729628        -0.562937         1.121692
 C        -2.007338         0.423893        -0.157803
 C        -1.656210        -0.768870        -1.027388
 C        -0.636703        -1.233870         0.116123
 O        -0.196882        -2.414939         0.395510
 C         0.277070         0.022952         0.144533
 O         1.485028        -0.075370         0.395864
 C        -0.705005         1.220599        -0.140029
 H        -3.373385        -1.914279         0.813090
 H        -2.349600        -2.281584         2.240898
 H        -3.612259        -0.960805         2.248062
 H        -1.261210        -0.033960         1.947812
 H        -2.939786         0.981442        -0.298967
 H        -2.450034        -1.445078        -1.245668
 H        -1.217043        -0.781981        -2.044839
 H         0.716592        -2.397925         0.563495
 H        -0.584214         2.123982         0.521973
 H        -0.466408         1.420217        -1.155026
