19
Iteration:  1434
 C        -2.924063        -1.258448         1.742666
 C        -1.802340        -0.584127         1.118199
 C        -2.029697         0.280922        -0.163305
 C        -1.487005        -0.852466        -1.099460
 C        -0.693408        -1.218368         0.216756
 O        -0.072697        -2.466794         0.286301
 C         0.279843         0.009011         0.199790
 O         1.472561        -0.106664         0.314669
 C        -0.746922         1.247987        -0.056384
 H        -3.604948        -1.759113         1.186827
 H        -2.576835        -2.092288         2.402308
 H        -3.685986        -0.539255         2.205776
 H        -1.358117        -0.023518         1.930241
 H        -2.906164         0.889495        -0.483855
 H        -2.140009        -1.629480        -1.484388
 H        -0.910241        -0.673567        -2.011406
 H         0.941094        -2.276803         0.281321
 H        -0.904043         1.843456         0.816651
 H        -0.544336         2.046817        -0.821320
