19
Iteration:  3449charge 0 multiplicity 1
 C        -2.748489        -1.418639         1.620302
 C        -1.770449        -0.402664         1.218173
 C        -1.941237         0.343403        -0.231190
 C        -1.661245        -0.872536        -1.054256
 C        -0.629357        -1.230070         0.117047
 O        -0.197951        -2.445493         0.389465
 C         0.251275        -0.025224         0.165752
 O         1.399780         0.039144         0.563886
 C        -0.655636         1.097257        -0.291046
 H        -2.470087        -2.319780         1.052298
 H        -2.631156        -1.587147         2.740013
 H        -3.849607        -1.218760         1.569392
 H        -1.441488         0.312053         1.922290
 H        -2.890769         0.941583        -0.286469
 H        -2.399550        -1.622867        -1.040666
 H        -1.380106        -0.868374        -2.115932
 H         0.752801        -2.322100         0.374679
 H        -0.726635         1.974165         0.431366
 H        -0.470126         1.429049        -1.291211
