19
Iteration:   287charge 0 multiplicity 1
 C        -3.127212        -1.388922         1.437319
 C        -1.734213        -0.747128         1.250694
 C        -1.983048         0.344237         0.001932
 C        -1.615346        -0.798222        -0.893570
 C        -0.699817        -1.214490         0.302455
 O        -0.030366        -2.486888         0.394028
 C         0.322479         0.110320         0.182539
 O         1.536820         0.015069         0.211289
 C        -0.609880         1.247002        -0.203423
 H        -3.656080        -1.683761         0.530112
 H        -3.012920        -2.208271         2.183517
 H        -3.724522        -0.638125         1.963431
 H        -1.423989        -0.091591         2.094679
 H        -3.058022         0.745924        -0.129948
 H        -2.525677        -1.559417        -1.026030
 H        -1.269683        -0.491889        -1.896992
 H         0.650340        -2.556633        -0.217885
 H        -0.519509         2.166153         0.319368
 H        -0.323781         1.344565        -1.293271
