19
Iteration:  3011
 C        -3.098597        -1.573869         1.365171
 C        -1.919036        -0.456004         1.226315
 C        -1.932754         0.383740        -0.253050
 C        -1.508922        -0.974317        -0.839870
 C        -0.608185        -1.149816         0.465687
 O        -0.165263        -2.404142         0.658982
 C         0.362718         0.067837         0.217490
 O         1.581739         0.031051        -0.072325
 C        -0.664737         1.205147        -0.159763
 H        -4.110668        -1.177722         1.119666
 H        -2.792056        -2.440173         0.891404
 H        -3.174110        -1.900184         2.400525
 H        -1.796562         0.161921         2.121434
 H        -2.911166         0.767398        -0.410890
 H        -2.241306        -1.826036        -1.015453
 H        -0.955613        -0.937550        -1.781355
 H         0.736162        -2.260747         0.462624
 H        -0.646712         1.888701         0.722891
 H        -0.467319         1.780924        -1.020752
