19
Iteration:  2843charge 0 multiplicity 1
 C        -2.855155        -1.422374         1.612530
 C        -1.801560        -0.466530         1.131153
 C        -2.024220         0.320220        -0.234921
 C        -1.457177        -0.961619        -1.009715
 C        -0.566388        -1.181160         0.192149
 O        -0.251144        -2.466195         0.487941
 C         0.285121         0.026354         0.143614
 O         1.465742         0.080258         0.459524
 C        -0.738000         1.153975        -0.261243
 H        -3.331457        -0.893012         2.450829
 H        -3.608683        -1.591661         0.816295
 H        -2.481035        -2.348953         2.010508
 H        -1.658378         0.403025         1.848173
 H        -3.064465         0.748677        -0.440640
 H        -2.206606        -1.780382        -1.164989
 H        -0.984739        -0.837263        -2.042674
 H         0.779132        -2.505023         0.659180
 H        -0.726705         2.083498         0.262365
 H        -0.399747         1.384948        -1.292872
