19
Iteration:   753
 C        -3.015970        -1.513952         1.480516
 C        -1.783157        -0.560696         1.231741
 C        -1.953051         0.419454        -0.067727
 C        -1.626235        -0.840771        -0.918354
 C        -0.587632        -1.132590         0.327605
 O        -0.123841        -2.444579         0.380150
 C         0.299083         0.026952         0.109111
 O         1.509063        -0.066892         0.151230
 C        -0.637416         1.243240        -0.094693
 H        -3.372926        -1.993040         0.537137
 H        -2.720695        -2.280295         2.325242
 H        -3.842637        -0.826832         1.774366
 H        -1.687669        -0.122377         2.256592
 H        -2.907226         0.841516        -0.357444
 H        -2.501152        -1.512225        -1.038335
 H        -1.094830        -0.813395        -1.898580
 H         0.750228        -2.224192         0.782760
 H        -0.676529         2.110723         0.651683
 H        -0.585965         1.417872        -1.216662
