19
Iteration:  2138charge 0 multiplicity 1
 C        -2.974380        -1.493421         1.561911
 C        -1.797332        -0.568735         1.252589
 C        -1.932812         0.375513        -0.008396
 C        -1.680314        -0.742944        -1.083094
 C        -0.764427        -1.159248         0.265016
 O        -0.032302        -2.347014         0.433821
 C         0.299178        -0.030991         0.083053
 O         1.478104        -0.087189         0.224927
 C        -0.569256         1.129930        -0.126843
 H        -3.903278        -1.478322         0.914857
 H        -2.633099        -2.541152         1.441131
 H        -3.208552        -1.334479         2.581370
 H        -1.482311        -0.197491         2.179134
 H        -2.782165         1.001861        -0.272973
 H        -2.514045        -1.466035        -1.057367
 H        -1.472598        -0.378093        -2.090532
 H         0.880141        -2.083132        -0.032596
 H        -0.529587         1.912497         0.723040
 H        -0.585590         1.502943        -1.113906
