19
Iteration:  2061charge 0 multiplicity 1
 C        -2.897583        -1.440224         1.815256
 C        -1.791006        -0.561786         1.054723
 C        -1.950410         0.353352        -0.131332
 C        -1.612013        -0.744746        -1.098203
 C        -0.644859        -1.234430         0.096867
 O        -0.201223        -2.577135         0.305792
 C         0.292698         0.039269         0.157140
 O         1.480467         0.072678         0.341086
 C        -0.640851         1.200617        -0.050238
 H        -3.601903        -2.068481         1.155785
 H        -2.289085        -2.124793         2.372969
 H        -3.512423        -0.835114         2.489518
 H        -1.405895        -0.068601         1.880671
 H        -2.923262         0.885158        -0.184163
 H        -2.481597        -1.387841        -1.324693
 H        -1.032349        -0.594275        -2.012707
 H         0.642338        -2.617657         0.708715
 H        -0.553214         2.121285         0.653354
 H        -0.518973         1.529255        -1.086988
