19
Iteration:  3408charge 0 multiplicity 1
 C        -3.026109        -1.375499         1.684188
 C        -1.807959        -0.500598         1.148466
 C        -1.915444         0.287989        -0.170696
 C        -1.556539        -0.940407        -1.106177
 C        -0.690520        -1.215641         0.215117
 O        -0.035809        -2.452874         0.390182
 C         0.286772         0.000216         0.110673
 O         1.467419         0.053767         0.368166
 C        -0.689404         1.183427        -0.165371
 H        -3.454927        -1.986390         0.950020
 H        -2.809351        -2.033285         2.628459
 H        -3.809445        -0.588720         1.876521
 H        -1.258440        -0.011963         2.017438
 H        -2.880044         0.771717        -0.438393
 H        -2.511419        -1.550711        -1.163857
 H        -1.101121        -0.732870        -2.125702
 H         0.704833        -2.296483         1.054822
 H        -0.713923         1.901912         0.656011
 H        -0.411970         1.749784        -1.046834
