19
Iteration:  2921
 C        -2.927857        -1.368885         1.572057
 C        -1.700111        -0.443427         1.142467
 C        -2.001749         0.278405        -0.268321
 C        -1.633433        -1.022381        -0.997299
 C        -0.673220        -1.140763         0.317613
 O        -0.000029        -2.416987         0.435584
 C         0.216169         0.060826         0.182369
 O         1.379110        -0.052206         0.532055
 C        -0.696429         1.173994        -0.325140
 H        -3.367447        -0.995947         2.546132
 H        -3.616562        -1.582151         0.827971
 H        -2.421343        -2.267191         1.696617
 H        -1.387089         0.308983         1.868263
 H        -2.860593         0.918315        -0.626209
 H        -2.365077        -1.793666        -1.199852
 H        -1.065074        -0.751274        -1.947279
 H         0.891613        -2.195005         0.223201
 H        -0.587531         2.108872         0.155853
 H        -0.425233         1.413408        -1.356707
