19
Iteration:  4602
 C        -2.857487        -1.434711         1.716019
 C        -1.822216        -0.491957         1.145598
 C        -1.992967         0.369518        -0.195096
 C        -1.485993        -0.903544        -1.024449
 C        -0.688784        -1.156367         0.128730
 O        -0.162308        -2.466728         0.432538
 C         0.261733        -0.031918         0.107634
 O         1.437873        -0.009664         0.403260
 C        -0.665586         1.220325        -0.213744
 H        -3.625368        -1.856050         0.941085
 H        -2.217537        -2.156433         2.196870
 H        -3.589149        -1.072411         2.411143
 H        -1.391207         0.053212         1.961097
 H        -2.864226         0.851511        -0.624099
 H        -2.289249        -1.531244        -1.200844
 H        -1.152183        -0.638358        -1.972454
 H         0.765021        -2.471771         0.824741
 H        -0.647601         1.984198         0.511737
 H        -0.519768         1.715865        -1.256434
