19
Iteration:  1994
 C        -2.951952        -1.609393         1.485499
 C        -1.683656        -0.561259         1.166365
 C        -1.929175         0.460348        -0.041136
 C        -1.811557        -0.687499        -0.937255
 C        -0.691442        -1.173259         0.232047
 O        -0.093809        -2.421964         0.457908
 C         0.298524        -0.009933         0.072615
 O         1.516365        -0.043695         0.257547
 C        -0.599688         1.150382        -0.175766
 H        -3.027428        -2.472763         0.709874
 H        -2.784548        -2.123790         2.354594
 H        -3.972466        -1.103046         1.503700
 H        -1.369436         0.017955         1.964994
 H        -2.856767         1.125390        -0.079539
 H        -2.661192        -1.360873        -0.894218
 H        -1.434918        -0.657991        -1.989412
 H         0.740419        -2.147449         1.019358
 H        -0.478895         1.964786         0.661600
 H        -0.617382         1.489267        -1.188388
