19
Iteration:  4050
 C        -2.968279        -1.345699         1.593708
 C        -1.783773        -0.565290         1.157175
 C        -1.932246         0.311713        -0.093284
 C        -1.643158        -0.896215        -1.047047
 C        -0.603957        -1.191091         0.183010
 O        -0.069590        -2.443761         0.369047
 C         0.285214         0.040548         0.108589
 O         1.449327         0.039249         0.512276
 C        -0.699736         1.098354        -0.251189
 H        -3.527711        -1.771852         0.814029
 H        -2.807721        -1.995951         2.435494
 H        -3.635964        -0.683142         2.150927
 H        -1.411858         0.160662         1.916339
 H        -2.906160         0.917145        -0.075639
 H        -2.302142        -1.829758        -1.073908
 H        -1.259290        -0.640607        -2.062051
 H         0.927399        -2.415440         0.082273
 H        -0.470045         2.065881         0.278205
 H        -0.663659         1.348910        -1.231857
