19
Iteration:  4682
 C        -3.059856        -1.441845         1.455138
 C        -1.827153        -0.580545         1.195817
 C        -2.014950         0.321034        -0.060802
 C        -1.507856        -0.860071        -0.998069
 C        -0.653766        -1.116840         0.213512
 O        -0.019392        -2.324534         0.599256
 C         0.282122         0.034614         0.180499
 O         1.485643        -0.134986         0.092933
 C        -0.671925         1.181362        -0.083164
 H        -3.260588        -2.125632         0.693291
 H        -3.020111        -2.100370         2.345008
 H        -3.812876        -0.664999         1.647065
 H        -1.655769         0.046143         2.004660
 H        -3.000079         0.824004        -0.312538
 H        -2.294743        -1.616503        -1.037307
 H        -1.054844        -0.630896        -1.855488
 H         0.990546        -2.256240         0.440456
 H        -0.517977         2.166394         0.443535
 H        -0.523606         1.369621        -1.135132
