19
Iteration:   796charge 0 multiplicity 1
 C        -3.073025        -1.424933         1.491064
 C        -1.777678        -0.637312         1.157350
 C        -1.979049         0.368261        -0.091566
 C        -1.633861        -0.798899        -1.000722
 C        -0.657628        -1.223124         0.227748
 O         0.046879        -2.418479         0.538410
 C         0.255319        -0.000274         0.147200
 O         1.501059        -0.066979         0.102695
 C        -0.682140         1.221825         0.004678
 H        -3.432810        -1.709623         0.504024
 H        -2.996292        -2.028923         2.483108
 H        -3.779495        -0.591055         1.762431
 H        -1.302034        -0.084190         1.968515
 H        -2.876256         0.965167        -0.187909
 H        -2.523399        -1.408470        -0.853710
 H        -1.273113        -0.559473        -2.012496
 H         0.976266        -2.237631         0.095206
 H        -0.579128         1.882463         0.943704
 H        -0.532247         1.578245        -1.049543
