19
Iteration:  4622charge 0 multiplicity 1
 C        -2.841598        -1.489100         1.599094
 C        -1.724948        -0.493317         1.065097
 C        -1.997927         0.387738        -0.252846
 C        -1.653877        -0.899710        -1.024652
 C        -0.677226        -1.147640         0.256268
 O        -0.184299        -2.429509         0.505318
 C         0.304916         0.045654         0.164609
 O         1.522402        -0.034504         0.299579
 C        -0.693275         1.173687        -0.135352
 H        -3.523361        -1.925193         0.789425
 H        -2.375975        -2.280470         2.194694
 H        -3.669468        -1.039330         2.145800
 H        -1.538164         0.248170         1.910860
 H        -2.905827         0.946547        -0.262090
 H        -2.406027        -1.705257        -1.135320
 H        -1.190095        -0.904645        -2.082284
 H         0.619891        -2.352287         1.000605
 H        -0.769199         1.864586         0.667649
 H        -0.376865         1.758812        -1.035671
