19
Iteration:  1733
 C        -2.857282        -1.431246         1.510487
 C        -1.624239        -0.582083         1.262225
 C        -1.898184         0.406052        -0.052990
 C        -1.757336        -0.774777        -0.886869
 C        -0.696866        -1.215778         0.149387
 O        -0.072339        -2.443942         0.384527
 C         0.207556        -0.011917         0.033153
 O         1.349334        -0.056130         0.440976
 C        -0.631182         1.219534        -0.267911
 H        -2.920079        -2.126114         0.527640
 H        -2.908021        -2.152759         2.280644
 H        -3.870003        -0.970629         1.324500
 H        -1.079856        -0.089434         1.986129
 H        -2.856912         0.981902        -0.039658
 H        -2.573782        -1.459446        -0.930188
 H        -1.365391        -0.683164        -1.866512
 H         0.849670        -2.259994         0.590535
 H        -0.319660         2.088340         0.375995
 H        -0.435658         1.467643        -1.279348
