19
Iteration:  4063charge 0 multiplicity 1
 C        -3.032002        -1.391883         1.603827
 C        -1.733496        -0.616977         1.136529
 C        -2.005728         0.336955        -0.058729
 C        -1.554129        -0.901140        -1.001487
 C        -0.659478        -1.174166         0.179103
 O        -0.137631        -2.408062         0.409144
 C         0.303089         0.022437         0.211061
 O         1.489369         0.083878         0.401969
 C        -0.634456         1.127760        -0.287113
 H        -3.519769        -1.999634         0.908058
 H        -2.694790        -2.077679         2.432717
 H        -3.781925        -0.662043         1.839733
 H        -1.278634        -0.318363         2.102444
 H        -2.954519         0.994362        -0.226526
 H        -2.352481        -1.658679        -1.136811
 H        -1.028182        -0.681357        -2.038536
 H         0.682108        -2.434802        -0.036870
 H        -0.629370         2.081156         0.203595
 H        -0.409473         1.225702        -1.275155
