19
Iteration:  3727charge 0 multiplicity 1
 C        -2.924042        -1.339015         1.602774
 C        -1.695131        -0.557322         1.168278
 C        -2.006817         0.384746        -0.184211
 C        -1.648183        -0.899663        -0.963815
 C        -0.705970        -1.200195         0.237427
 O         0.009926        -2.445273         0.291547
 C         0.240035        -0.002703         0.195640
 O         1.396838        -0.030530         0.562752
 C        -0.657338         1.158879        -0.392219
 H        -3.347972        -2.115675         0.910584
 H        -2.784800        -1.812541         2.684484
 H        -3.783316        -0.669299         1.921032
 H        -1.171942        -0.030622         2.081365
 H        -2.953725         0.990229        -0.235383
 H        -2.418799        -1.685822        -0.849699
 H        -1.314418        -0.706266        -2.021280
 H         1.030504        -2.340581         0.302882
 H        -0.493667         2.076680         0.206748
 H        -0.634215         1.480263        -1.491790
