19
Iteration:  4163charge 0 multiplicity 1
 C        -3.054859        -1.518817         1.382916
 C        -1.848445        -0.569376         1.202880
 C        -1.939754         0.383386        -0.131699
 C        -1.535939        -0.840954        -0.990952
 C        -0.613969        -1.100605         0.405945
 O        -0.066593        -2.329082         0.639906
 C         0.277876         0.006715         0.217521
 O         1.470913        -0.087842         0.006329
 C        -0.669837         1.163016        -0.097878
 H        -3.299827        -1.848241         0.357006
 H        -2.807399        -2.321159         2.070281
 H        -3.987000        -1.131737         1.780023
 H        -1.718551        -0.129755         2.230598
 H        -2.863984         0.988189        -0.279045
 H        -2.222123        -1.644056        -1.310451
 H        -0.839440        -0.515414        -1.877108
 H         0.767398        -2.390178         0.210641
 H        -0.598093         1.818291         0.748649
 H        -0.413721         1.680349        -0.990042
