19
Iteration:   477
 C        -3.091433        -1.438835         1.599994
 C        -1.898846        -0.459206         1.168328
 C        -1.956862         0.363716        -0.153123
 C        -1.535946        -0.923809        -0.980419
 C        -0.616079        -1.174463         0.280049
 O         0.015212        -2.387958         0.361548
 C         0.244076         0.045924         0.141415
 O         1.451252        -0.141661         0.108034
 C        -0.625799         1.200642         0.072363
 H        -3.359392        -2.033211         0.686291
 H        -2.661571        -2.086658         2.356680
 H        -3.917389        -0.726886         1.859803
 H        -1.552359         0.032390         2.125709
 H        -2.772503         0.972461        -0.460451
 H        -2.328569        -1.674546        -1.058585
 H        -1.026278        -0.801841        -2.040537
 H         0.929265        -2.236349         0.601922
 H        -0.802044         2.028448         0.821842
 H        -0.334851         1.741703        -0.814778
