19
Iteration:  2294
 C        -2.925478        -1.454207         1.753779
 C        -1.834519        -0.499431         1.198941
 C        -1.940051         0.444225        -0.152808
 C        -1.660016        -0.837003        -1.002255
 C        -0.709034        -1.123029         0.173319
 O        -0.084479        -2.377082         0.157576
 C         0.286623        -0.017659         0.159073
 O         1.476708        -0.129809         0.310619
 C        -0.611276         1.113538        -0.049676
 H        -3.138215        -2.379576         1.334915
 H        -2.612817        -1.852564         2.875809
 H        -3.981210        -1.111059         1.914814
 H        -1.511146         0.034540         2.081966
 H        -2.866988         0.977501        -0.324835
 H        -2.247829        -1.762489        -1.118294
 H        -1.113036        -0.659566        -1.979311
 H         0.858726        -2.113626         0.340802
 H        -0.632754         1.973479         0.641217
 H        -0.440402         1.599553        -1.092410
