19
Iteration:  4173
 C        -3.099086        -1.441998         1.337637
 C        -1.812446        -0.563660         1.188175
 C        -1.969290         0.334129        -0.064507
 C        -1.522844        -0.877163        -0.984762
 C        -0.639515        -1.183501         0.336979
 O        -0.072337        -2.371709         0.638560
 C         0.323043         0.058331         0.205164
 O         1.527086        -0.064278         0.035831
 C        -0.706196         1.210815        -0.080083
 H        -3.383766        -1.965805         0.440266
 H        -2.770368        -2.394424         1.805234
 H        -3.900056        -0.996102         1.868610
 H        -1.513519         0.069432         2.128577
 H        -2.979473         0.862481        -0.224309
 H        -2.283855        -1.657939        -0.948953
 H        -1.121593        -0.724291        -2.084454
 H         0.786487        -2.245206         0.288598
 H        -0.688891         1.989341         0.761696
 H        -0.434747         1.709491        -0.944285
