19
Iteration:   895
 C        -2.804170        -1.516552         1.527071
 C        -1.752037        -0.501624         1.139262
 C        -1.983576         0.392917        -0.061614
 C        -1.744185        -0.818818        -0.946363
 C        -0.666104        -1.195920         0.226362
 O        -0.185354        -2.489165         0.403189
 C         0.297397         0.012087         0.056899
 O         1.473091         0.051002         0.414445
 C        -0.622657         1.157205        -0.211132
 H        -3.344655        -1.834691         0.676090
 H        -2.376875        -2.295762         2.136441
 H        -3.498781        -0.829247         1.998011
 H        -1.399169         0.188642         1.885874
 H        -2.817008         1.056717        -0.126827
 H        -2.420225        -1.575772        -1.097562
 H        -1.359852        -0.716466        -1.949851
 H         0.800198        -2.541858         0.313485
 H        -0.517732         1.792055         0.672804
 H        -0.504010         1.529153        -1.211277
