19
Iteration:   167charge 0 multiplicity 1
 C        -2.928856        -1.468903         1.479093
 C        -1.633524        -0.615618         1.164888
 C        -2.016955         0.395128        -0.009062
 C        -1.665149        -0.858507        -0.917456
 C        -0.654873        -1.189969         0.096309
 O        -0.227732        -2.492986         0.452770
 C         0.314671         0.081005         0.122148
 O         1.503537         0.012293         0.284535
 C        -0.604769         1.261197        -0.142897
 H        -3.342806        -2.151174         0.714250
 H        -2.775832        -1.976890         2.483217
 H        -3.767054        -0.773189         1.667888
 H        -1.331193        -0.238803         2.171659
 H        -3.006313         0.933235         0.044419
 H        -2.507020        -1.706390        -1.024697
 H        -1.320947        -0.604426        -1.977455
 H         0.725376        -2.513543         0.221387
 H        -0.562390         1.909687         0.696641
 H        -0.383862         1.675212        -1.170227
