19
Iteration:  4321
 C        -2.843788        -1.441053         1.611640
 C        -1.756459        -0.473581         1.135189
 C        -2.012158         0.338929        -0.161787
 C        -1.576144        -0.917130        -0.981103
 C        -0.634724        -1.132274         0.224946
 O        -0.193682        -2.432446         0.348896
 C         0.259371        -0.024163         0.187027
 O         1.417054         0.040188         0.482969
 C        -0.617596         1.126840        -0.286567
 H        -3.113167        -2.224593         0.859557
 H        -2.475719        -1.986909         2.569969
 H        -3.837314        -0.843653         1.717390
 H        -1.377873         0.146663         2.041359
 H        -2.971061         0.810824        -0.474295
 H        -2.423562        -1.636749        -1.031012
 H        -1.119674        -0.750154        -2.026838
 H         0.770515        -2.318534         0.348051
 H        -0.562817         1.988526         0.388211
 H        -0.423899         1.475071        -1.307522
