19
Iteration:  3781charge 0 multiplicity 1
 C        -2.804461        -1.454854         1.657442
 C        -1.803296        -0.466230         1.044443
 C        -1.965056         0.335312        -0.282986
 C        -1.616125        -0.885404        -1.024233
 C        -0.696843        -1.200466         0.113537
 O        -0.176627        -2.456369         0.491504
 C         0.241703         0.061858         0.158155
 O         1.432517         0.002441         0.463237
 C        -0.613648         1.174384        -0.201439
 H        -3.507667        -2.181845         1.219691
 H        -2.136127        -2.292478         2.168864
 H        -3.318408        -0.935902         2.505930
 H        -1.533839         0.254101         1.939417
 H        -2.846506         0.991615        -0.440734
 H        -2.454942        -1.580306        -1.020396
 H        -1.050096        -0.855220        -1.932068
 H         0.818863        -2.437518         0.525665
 H        -0.782627         1.995597         0.533550
 H        -0.331037         1.644275        -1.214591
