19
Iteration:  1995
 C        -2.948150        -1.605130         1.484569
 C        -1.677325        -0.564338         1.168947
 C        -1.938834         0.473807        -0.056862
 C        -1.817665        -0.689576        -0.945164
 C        -0.688453        -1.170179         0.239499
 O        -0.095136        -2.424453         0.456344
 C         0.299339        -0.016233         0.077509
 O         1.517250        -0.049531         0.263079
 C        -0.603849         1.158633        -0.175584
 H        -3.008863        -2.489584         0.722294
 H        -2.768271        -2.112050         2.352969
 H        -3.953032        -1.136741         1.530950
 H        -1.325166         0.023540         1.963251
 H        -2.886658         1.094166        -0.067230
 H        -2.664869        -1.367542        -0.888012
 H        -1.416476        -0.684559        -1.967134
 H         0.736630        -2.143733         0.967924
 H        -0.502642         1.968195         0.679036
 H        -0.594880         1.502255        -1.181813
