19
Iteration:  3796charge 0 multiplicity 1
 C        -2.804969        -1.508940         1.699373
 C        -1.866753        -0.481984         1.087529
 C        -1.996106         0.397352        -0.213474
 C        -1.503406        -0.941047        -1.115919
 C        -0.676124        -1.131704         0.261717
 O        -0.251500        -2.418652         0.507078
 C         0.282370        -0.026504         0.148513
 O         1.503344         0.021965         0.403186
 C        -0.712232         1.210458        -0.223799
 H        -3.407966        -1.749443         0.728819
 H        -2.254060        -2.340318         2.176411
 H        -3.477134        -1.139212         2.497936
 H        -1.301074         0.065834         1.871160
 H        -2.901110         0.805044        -0.591980
 H        -2.275610        -1.706022        -1.128420
 H        -1.014378        -0.670549        -2.181414
 H         0.655628        -2.548943         0.262721
 H        -0.467677         1.972869         0.473969
 H        -0.402488         1.564111        -1.251087
