19
Iteration:  3090charge 0 multiplicity 1
 C        -3.029251        -1.482056         1.554022
 C        -1.902270        -0.529860         1.158258
 C        -2.004738         0.386840        -0.219883
 C        -1.611773        -0.962183        -0.959825
 C        -0.657433        -1.140073         0.373852
 O        -0.062100        -2.356677         0.467934
 C         0.304229         0.023814         0.138254
 O         1.549758         0.015260         0.288689
 C        -0.614854         1.119830        -0.243059
 H        -3.838199        -1.516943         0.883209
 H        -2.636912        -2.569967         1.426899
 H        -3.334193        -1.127739         2.591019
 H        -1.596619         0.005952         2.049107
 H        -2.870581         1.033043        -0.515946
 H        -2.311919        -1.795777        -0.869997
 H        -1.013035        -0.951984        -1.891769
 H         0.932648        -2.122098         0.309510
 H        -0.760096         1.925951         0.573497
 H        -0.313718         1.702981        -1.137544
