19
Iteration:  4466
 C        -2.865521        -1.466005         1.507221
 C        -1.802031        -0.484647         1.049676
 C        -2.027407         0.354302        -0.158856
 C        -1.536751        -0.894375        -1.003881
 C        -0.672508        -1.206743         0.214534
 O        -0.218523        -2.431207         0.645655
 C         0.257172         0.006484         0.144334
 O         1.487214         0.005053         0.116394
 C        -0.612245         1.227440        -0.004721
 H        -3.213477        -1.959153         0.675618
 H        -2.353229        -2.124439         2.248009
 H        -3.795839        -1.054019         1.937319
 H        -1.382353        -0.048099         1.998023
 H        -3.021609         0.829176        -0.354445
 H        -2.303235        -1.678815        -1.210051
 H        -0.972916        -0.719249        -1.894174
 H         0.728017        -2.430991         0.615141
 H        -0.686446         2.000937         0.812940
 H        -0.325845         1.681442        -0.861248
