19
Iteration:   191
 C        -2.886655        -1.620294         1.641132
 C        -1.820941        -0.486786         1.153672
 C        -1.988517         0.415765        -0.172040
 C        -1.579703        -0.657438        -1.121126
 C        -0.679593        -1.157420         0.276522
 O        -0.232323        -2.440882         0.505011
 C         0.342328        -0.031894         0.152965
 O         1.545806        -0.010415         0.195372
 C        -0.664076         1.116640        -0.074344
 H        -3.419349        -2.106761         0.810686
 H        -2.350782        -2.293374         2.346676
 H        -3.741958        -1.168582         2.269137
 H        -1.581346         0.135510         2.056513
 H        -2.894225         1.121038        -0.146066
 H        -2.362048        -1.521084        -1.277024
 H        -0.938801        -0.601619        -2.062574
 H         0.631748        -2.536013        -0.064740
 H        -0.655014         1.824761         0.808931
 H        -0.513267         1.540156        -1.088154
