19
Iteration:  1705
 C        -2.858625        -1.487497         1.601264
 C        -1.792026        -0.548451         1.102800
 C        -2.039735         0.407705        -0.106988
 C        -1.732976        -0.804451        -1.079177
 C        -0.650719        -1.153800         0.126753
 O        -0.198665        -2.440704         0.495070
 C         0.360962         0.014135         0.076782
 O         1.570798        -0.028894         0.329663
 C        -0.674626         1.182379        -0.053885
 H        -3.039224        -2.262564         0.889119
 H        -2.514755        -2.067549         2.505624
 H        -3.831326        -1.134870         1.822371
 H        -1.251617         0.093202         1.876588
 H        -2.936733         1.013844        -0.022190
 H        -2.450071        -1.650011        -1.103889
 H        -1.305513        -0.692775        -2.127134
 H         0.737801        -2.502948         0.444176
 H        -0.524762         1.908227         0.727791
 H        -0.322037         1.605268        -1.078011
