19
Iteration:  2756
 C        -3.129476        -1.417290         1.376631
 C        -1.862251        -0.597740         1.162301
 C        -1.969212         0.392040        -0.140342
 C        -1.415349        -0.900396        -0.881121
 C        -0.718146        -1.177980         0.407168
 O        -0.004895        -2.376664         0.685050
 C         0.297970        -0.028728         0.138501
 O         1.517292        -0.003872         0.024011
 C        -0.707901         1.193619        -0.163341
 H        -4.061961        -1.007273         0.938869
 H        -2.989620        -2.467426         1.006365
 H        -3.299856        -1.627561         2.436916
 H        -1.604982        -0.218595         2.111177
 H        -2.969626         0.924384        -0.395776
 H        -2.168775        -1.750811        -0.957758
 H        -0.956288        -0.616374        -1.873764
 H         0.894761        -2.195324         0.412529
 H        -0.773374         2.052065         0.478322
 H        -0.345340         1.548681        -1.153835
