19
Iteration:  1902charge 0 multiplicity 1
 C        -3.065824        -1.452522         1.575118
 C        -1.779256        -0.627832         1.092353
 C        -2.009090         0.348372        -0.133089
 C        -1.561260        -0.686905        -1.082221
 C        -0.643362        -1.165100         0.198671
 O        -0.063461        -2.386711         0.593220
 C         0.260895        -0.015673         0.137007
 O         1.497716        -0.132282         0.097236
 C        -0.685745         1.217024        -0.004553
 H        -3.718797        -2.064198         1.014020
 H        -2.602115        -2.357832         2.192032
 H        -3.606167        -0.907114         2.389299
 H        -1.201701        -0.125450         1.802163
 H        -2.959020         0.855316        -0.273815
 H        -2.310808        -1.513439        -1.195231
 H        -1.031779        -0.370403        -2.021307
 H         0.940020        -2.084536         0.691185
 H        -0.510097         1.681133         0.916073
 H        -0.281136         1.892912        -0.827673
