19
Iteration:  2724charge 0 multiplicity 1
 C        -3.122843        -1.412298         1.464451
 C        -1.892522        -0.572546         1.144490
 C        -1.986467         0.276547        -0.143907
 C        -1.448356        -0.900562        -1.007141
 C        -0.641853        -1.159946         0.347323
 O        -0.105995        -2.443661         0.679216
 C         0.345214         0.005518         0.118553
 O         1.581499         0.070097         0.030840
 C        -0.723690         1.198343        -0.059609
 H        -3.941109        -1.248340         0.707631
 H        -2.794128        -2.417952         1.275896
 H        -3.482216        -1.243898         2.462081
 H        -1.569238        -0.104065         2.012835
 H        -2.897593         0.933395        -0.378652
 H        -2.100449        -1.800960        -1.032759
 H        -1.181337        -0.748698        -2.053483
 H         0.877248        -2.196276         0.766988
 H        -0.627630         2.019231         0.636455
 H        -0.376312         1.677909        -0.985065
