19
Iteration:  4518
 C        -2.925442        -1.352320         1.628046
 C        -1.794689        -0.472701         1.179586
 C        -1.978156         0.355158        -0.111139
 C        -1.603286        -0.899355        -1.051964
 C        -0.612718        -1.223807         0.173609
 O        -0.043064        -2.431726         0.344344
 C         0.231567         0.013608         0.187583
 O         1.425383        -0.043309         0.390694
 C        -0.666569         1.115792        -0.195404
 H        -3.255496        -2.056893         0.822253
 H        -2.678965        -1.870934         2.559509
 H        -3.766545        -0.684921         1.898615
 H        -1.463143         0.116779         2.108443
 H        -2.935231         0.950107        -0.246920
 H        -2.482545        -1.575176        -1.031592
 H        -1.123769        -0.834209        -2.137096
 H         0.926398        -2.177885         0.645689
 H        -0.740841         2.093494         0.322360
 H        -0.537985         1.313326        -1.284281
