19
Iteration:  1420charge 0 multiplicity 1
 C        -2.989927        -1.345814         1.782202
 C        -1.775795        -0.550046         1.123795
 C        -1.982137         0.314266        -0.233787
 C        -1.405942        -0.778909        -1.141602
 C        -0.658457        -1.205435         0.181597
 O        -0.157964        -2.471450         0.358515
 C         0.250325        -0.019060         0.275010
 O         1.454067        -0.010400         0.192912
 C        -0.737653         1.135374        -0.012581
 H        -3.519296        -1.821689         0.928982
 H        -2.714051        -2.086567         2.530711
 H        -3.439874        -0.631323         2.438205
 H        -1.378331         0.008388         1.967333
 H        -3.026330         0.652475        -0.277814
 H        -2.162798        -1.535960        -1.427446
 H        -0.763760        -0.329976        -1.933316
 H         0.766643        -2.393251         0.473262
 H        -0.722020         1.780570         0.847617
 H        -0.322093         1.572371        -0.934033
