19
Iteration:  1309
 C        -3.005104        -1.374748         1.621330
 C        -1.837339        -0.547429         1.051427
 C        -1.952033         0.350572        -0.162365
 C        -1.630065        -0.884201        -1.040799
 C        -0.645709        -1.180227         0.212248
 O        -0.038895        -2.336630         0.409297
 C         0.263248        -0.017104         0.179738
 O         1.491936        -0.087181         0.166964
 C        -0.675174         1.139215         0.083241
 H        -3.535593        -1.956015         0.736420
 H        -2.627877        -2.062521         2.343602
 H        -3.854423        -0.876267         2.059241
 H        -1.436600        -0.144889         1.920378
 H        -2.837155         0.974378        -0.378793
 H        -2.229212        -1.752600        -0.997416
 H        -0.898492        -0.590103        -1.762993
 H         0.902333        -2.129810         0.342559
 H        -0.617630         1.751974         0.997015
 H        -0.462624         1.845787        -0.685434
