19
Iteration:  2286
 C        -2.982378        -1.495667         1.758520
 C        -1.834530        -0.443471         1.171259
 C        -1.949022         0.365323        -0.112624
 C        -1.635466        -0.849893        -1.020480
 C        -0.718568        -1.157385         0.157177
 O        -0.043106        -2.329464         0.175573
 C         0.290588         0.000958         0.189440
 O         1.508557        -0.175288         0.278419
 C        -0.648929         1.165779        -0.073698
 H        -3.117764        -2.451758         1.191829
 H        -2.614169        -1.677946         2.775913
 H        -3.984175        -1.003483         1.986461
 H        -1.412397         0.080245         2.016901
 H        -2.847958         1.011491        -0.226128
 H        -2.627680        -1.343151        -1.017155
 H        -1.274426        -0.843679        -2.045525
 H         0.936391        -2.154320         0.506945
 H        -0.662248         1.786879         0.822751
 H        -0.235963         1.754033        -0.983449
