19
Iteration:   469charge 0 multiplicity 1
 C        -3.015312        -1.391344         1.595511
 C        -1.921492        -0.497949         1.159934
 C        -1.959135         0.401357        -0.164661
 C        -1.519301        -0.963072        -0.951542
 C        -0.640824        -1.181734         0.251774
 O         0.040504        -2.389331         0.312195
 C         0.232620        -0.006491         0.253822
 O         1.422139        -0.132922         0.095303
 C        -0.636242         1.262896         0.034732
 H        -3.613640        -1.899020         0.785173
 H        -2.917969        -2.051007         2.458706
 H        -3.840958        -0.840321         2.014928
 H        -1.569038         0.046884         2.045367
 H        -2.923679         0.842820        -0.505300
 H        -2.235838        -1.865506        -1.213451
 H        -0.907810        -0.675489        -1.837439
 H         0.843759        -2.236131         0.737222
 H        -0.675471         1.965985         0.842416
 H        -0.177036         1.694850        -0.871533
