19
Iteration:  1469
 C        -2.921484        -1.386495         1.566047
 C        -1.779384        -0.517952         1.200114
 C        -1.999479         0.363298        -0.098391
 C        -1.848522        -0.877355        -0.967561
 C        -0.720719        -1.249013         0.107473
 O         0.061059        -2.368830         0.261823
 C         0.264510        -0.028576         0.151402
 O         1.437354        -0.063084         0.492572
 C        -0.542329         1.139202        -0.232798
 H        -3.129978        -1.938161         0.667080
 H        -2.676657        -1.989905         2.450154
 H        -3.725775        -0.723557         1.964486
 H        -1.242124        -0.086798         2.076982
 H        -2.688456         1.239055        -0.083760
 H        -2.612839        -1.607044        -0.772551
 H        -1.578013        -0.652800        -1.990046
 H         0.898564        -1.917632         0.679280
 H        -0.557093         1.915419         0.591740
 H        -0.227833         1.461996        -1.232329
