19
Iteration:  1881charge 0 multiplicity 1
 C        -2.883842        -1.502275         1.403368
 C        -1.815313        -0.535693         1.234647
 C        -1.988110         0.418605         0.008136
 C        -1.642953        -0.820920        -1.035901
 C        -0.700733        -1.140497         0.260991
 O        -0.091631        -2.355000         0.526406
 C         0.273682        -0.005877         0.115076
 O         1.503899        -0.166247         0.170511
 C        -0.676390         1.205675        -0.090762
 H        -3.359132        -1.892795         0.561240
 H        -2.515225        -2.488376         1.892124
 H        -3.586966        -1.013607         2.140889
 H        -1.482213         0.002185         2.139084
 H        -2.813385         1.031896        -0.342858
 H        -2.514993        -1.491124        -1.216166
 H        -0.929088        -0.622157        -1.876896
 H         0.874315        -2.201380         0.589477
 H        -0.550072         2.080516         0.527318
 H        -0.651453         1.617288        -1.167818
