19
Iteration:   494charge 0 multiplicity 1
 C        -2.997473        -1.454000         1.488434
 C        -1.859784        -0.567214         1.134046
 C        -1.971294         0.410813        -0.075713
 C        -1.630789        -0.817808        -0.961167
 C        -0.695140        -1.181071         0.250569
 O        -0.056868        -2.367783         0.522833
 C         0.339487        -0.032292         0.104035
 O         1.586529        -0.085077         0.124703
 C        -0.688135         1.178494        -0.056698
 H        -3.360092        -2.130630         0.740082
 H        -2.877238        -1.970388         2.461204
 H        -3.980949        -0.980052         1.712019
 H        -1.563219        -0.060796         2.056014
 H        -3.003315         0.831460        -0.238735
 H        -2.466887        -1.556681        -1.052056
 H        -1.185730        -0.634961        -1.893627
 H         0.926165        -2.175728         0.256883
 H        -0.492074         1.588810         0.936069
 H        -0.560481         2.004161        -0.804031
