19
Iteration:  2783charge 0 multiplicity 1
 C        -2.967361        -1.432203         1.355716
 C        -1.815327        -0.478381         1.127866
 C        -1.950425         0.323053        -0.204629
 C        -1.642796        -0.985427        -0.967515
 C        -0.686429        -1.142766         0.298668
 O         0.013313        -2.273896         0.704941
 C         0.274975        -0.009320         0.086371
 O         1.497452        -0.142592         0.169528
 C        -0.712040         1.210198        -0.113479
 H        -3.991207        -0.998271         1.306344
 H        -2.948444        -2.333945         0.750802
 H        -2.834830        -1.942292         2.339744
 H        -1.706074         0.161514         2.070518
 H        -2.802873         0.924929        -0.271105
 H        -2.407400        -1.712865        -0.985264
 H        -1.191211        -0.665356        -1.861297
 H         0.906186        -2.079033         0.841547
 H        -1.056496         1.737746         0.827231
 H        -0.275918         1.862272        -0.866040
