19
Iteration:  3583
 C        -3.032937        -1.437947         1.371010
 C        -1.825940        -0.488185         1.136557
 C        -2.020345         0.355103        -0.086062
 C        -1.497029        -0.901070        -1.005900
 C        -0.696955        -1.195686         0.383037
 O        -0.003152        -2.408228         0.701493
 C         0.268888         0.006816         0.145166
 O         1.478693        -0.046362         0.006621
 C        -0.674773         1.199787        -0.088235
 H        -3.495771        -1.398143         0.482108
 H        -2.679605        -2.454423         1.628609
 H        -3.888065        -1.250996         2.027180
 H        -1.554957        -0.109423         2.066959
 H        -2.954654         0.935692        -0.268106
 H        -2.442156        -1.422704        -1.233301
 H        -1.034194        -0.673329        -1.897726
 H         0.967642        -2.300762         0.969853
 H        -0.441644         1.848788         0.749752
 H        -0.467776         1.745362        -0.980276
