19
Iteration:  1832charge 0 multiplicity 1
 C        -2.920092        -1.452006         1.670105
 C        -1.788648        -0.561358         1.122806
 C        -1.971528         0.346725        -0.064406
 C        -1.616748        -0.799451        -1.065955
 C        -0.740860        -1.218562         0.125729
 O        -0.190437        -2.425579         0.394717
 C         0.356230         0.013629         0.158725
 O         1.551070         0.009200         0.337645
 C        -0.641780         1.162703        -0.131347
 H        -3.457585        -2.023643         0.774107
 H        -2.484566        -2.388877         1.962014
 H        -3.672415        -1.054007         2.338180
 H        -1.230250         0.002422         1.878634
 H        -2.971128         0.831988        -0.145678
 H        -2.472049        -1.434265        -1.217378
 H        -1.203283        -0.438144        -1.980595
 H         0.699910        -2.287655         0.672040
 H        -0.803604         2.132793         0.439333
 H        -0.427145         1.534597        -1.084813
