19
Iteration:  3639charge 0 multiplicity 1
 C        -2.979697        -1.587153         1.494941
 C        -1.868635        -0.475252         1.093227
 C        -1.989144         0.380423        -0.189278
 C        -1.511652        -0.789635        -1.013646
 C        -0.668243        -1.158523         0.370917
 O        -0.153347        -2.374593         0.678857
 C         0.290539        -0.031137         0.147596
 O         1.512068        -0.047595         0.067760
 C        -0.656496         1.192168        -0.074116
 H        -3.325539        -2.204117         0.727955
 H        -2.498153        -2.477932         2.009337
 H        -3.659524        -0.998262         2.112046
 H        -1.593531         0.003190         2.039824
 H        -2.812472         1.042393        -0.564700
 H        -2.286406        -1.557581        -1.347213
 H        -0.886830        -0.452378        -1.814432
 H         0.816305        -2.360722         0.431983
 H        -0.515486         1.886482         0.731029
 H        -0.516352         1.619121        -1.082933
