19
Iteration:  1325
 C        -3.072064        -1.545220         1.601412
 C        -1.922814        -0.619281         1.136789
 C        -1.995970         0.415773        -0.116012
 C        -1.510972        -0.774371        -1.077725
 C        -0.706276        -1.172516         0.215550
 O         0.015716        -2.318499         0.507779
 C         0.284193         0.005681         0.131325
 O         1.488020        -0.187889         0.139686
 C        -0.618058         1.236333        -0.035120
 H        -3.495030        -2.185330         0.887410
 H        -2.638705        -2.150748         2.467168
 H        -3.638192        -0.773771         2.223114
 H        -1.490312        -0.021740         2.015679
 H        -2.914125         0.990623        -0.240781
 H        -2.484471        -1.371110        -1.210538
 H        -1.096483        -0.534788        -2.102907
 H         0.922053        -1.991793         0.558527
 H        -0.533702         1.879893         0.861368
 H        -0.320623         1.810673        -0.958953
