19
Iteration:  1050charge 0 multiplicity 1
 C        -2.851451        -1.627045         1.523348
 C        -1.846848        -0.468865         1.132899
 C        -1.985388         0.397739        -0.174011
 C        -1.558909        -0.825845        -0.980272
 C        -0.689011        -1.139204         0.250724
 O        -0.220324        -2.361038         0.498901
 C         0.288235        -0.036614         0.109016
 O         1.517998        -0.103098         0.117789
 C        -0.643388         1.243168         0.041813
 H        -3.139529        -1.977873         0.521087
 H        -2.299300        -2.314382         2.285947
 H        -3.781750        -1.106838         2.053362
 H        -1.422275         0.103009         1.977832
 H        -2.990108         0.930131        -0.230041
 H        -2.339220        -1.586664        -0.971740
 H        -1.102427        -0.650208        -1.935156
 H         0.717764        -2.281762         0.619377
 H        -0.767099         1.929408         0.917591
 H        -0.335703         1.972936        -0.813288
