19
Iteration:  4208charge 0 multiplicity 1
 C        -3.101229        -1.380500         1.510241
 C        -1.782929        -0.547380         1.156145
 C        -1.963242         0.299494        -0.124668
 C        -1.528461        -0.870437        -1.033255
 C        -0.697419        -1.222248         0.256981
 O        -0.023275        -2.440669         0.510435
 C         0.273820        -0.008682         0.107225
 O         1.478262         0.099127         0.224608
 C        -0.630361         1.121929        -0.114097
 H        -3.739758        -1.477701         0.524792
 H        -2.765298        -2.239066         2.039185
 H        -3.816128        -0.969337         2.240905
 H        -1.261683         0.004078         2.016292
 H        -2.889269         0.808862        -0.231251
 H        -2.361273        -1.672236        -0.993837
 H        -1.203261        -0.800517        -2.159606
 H         0.775435        -2.279481         0.998372
 H        -0.654050         1.659635         0.779016
 H        -0.336751         1.838755        -0.940392
