19
Iteration:  1246
 C        -2.961280        -1.526947         1.603142
 C        -1.742872        -0.554523         1.193905
 C        -1.991416         0.394137        -0.056974
 C        -1.694067        -0.806091        -0.944700
 C        -0.676725        -1.172259         0.144322
 O        -0.159184        -2.445647         0.298234
 C         0.360770        -0.027636         0.154142
 O         1.544652         0.056050         0.431491
 C        -0.641486         1.181833        -0.253453
 H        -3.281376        -2.005932         0.612248
 H        -2.573185        -2.277856         2.248526
 H        -3.958760        -1.005462         1.928939
 H        -1.153502         0.054623         1.965989
 H        -2.944147         0.949404        -0.073140
 H        -2.543955        -1.546118        -1.077903
 H        -1.424136        -0.635050        -2.024346
 H         0.589537        -2.415640         0.929247
 H        -0.318184         2.103828         0.221512
 H        -0.526832         1.266022        -1.348049
