19
Iteration:  2973
 C        -2.953909        -1.474341         1.530568
 C        -1.785999        -0.498852         1.108169
 C        -2.017260         0.302743        -0.151779
 C        -1.489825        -0.873765        -1.080785
 C        -0.679026        -1.194163         0.298866
 O        -0.157812        -2.424986         0.710044
 C         0.298491        -0.031055         0.140378
 O         1.539088         0.040951         0.142540
 C        -0.722749         1.200039        -0.212878
 H        -3.887168        -0.939173         1.574923
 H        -3.170025        -2.181984         0.621328
 H        -2.694911        -2.095356         2.420600
 H        -1.413282         0.192821         1.937295
 H        -2.987897         0.817357        -0.428164
 H        -2.243102        -1.572216        -1.387186
 H        -0.858340        -0.536651        -1.930672
 H         0.489057        -2.274446         1.413762
 H        -0.709865         1.752075         0.744023
 H        -0.554319         1.927124        -1.056381
