19
Iteration:  1866
 C        -2.932161        -1.597313         1.410371
 C        -1.750187        -0.442699         1.208574
 C        -1.948738         0.441809        -0.094253
 C        -1.641032        -0.833939        -0.815033
 C        -0.719691        -1.153079         0.313103
 O        -0.136852        -2.370341         0.451984
 C         0.247681         0.008743         0.110366
 O         1.459607        -0.102094         0.225723
 C        -0.580583         1.196257        -0.217821
 H        -3.191709        -1.764960         0.320564
 H        -2.375677        -2.442754         1.814693
 H        -3.835002        -1.431394         1.946196
 H        -1.430533        -0.130049         2.176776
 H        -2.934123         0.867548         0.011424
 H        -2.438176        -1.552822        -0.870823
 H        -1.342723        -0.651521        -1.821126
 H         0.864328        -2.211799         0.254644
 H        -0.448295         1.916464         0.604399
 H        -0.273643         1.639869        -1.120789
