19
Iteration:   496charge 0 multiplicity 1
 C        -2.977697        -1.470468         1.484434
 C        -1.852842        -0.576264         1.123137
 C        -1.992452         0.428843        -0.066353
 C        -1.663096        -0.827574        -0.958187
 C        -0.689825        -1.189150         0.249704
 O        -0.063500        -2.361617         0.540733
 C         0.340475        -0.035653         0.099165
 O         1.588211        -0.077894         0.125732
 C        -0.672566         1.181287        -0.070424
 H        -3.343029        -2.118990         0.718277
 H        -2.875341        -1.975410         2.455510
 H        -3.975442        -0.872385         1.629943
 H        -1.553327        -0.148096         2.114806
 H        -2.991456         0.801634        -0.222975
 H        -2.375872        -1.553421        -1.117992
 H        -1.167083        -0.534111        -1.897102
 H         0.848718        -2.250414         0.278440
 H        -0.479172         1.666477         0.964071
 H        -0.515165         1.996637        -0.787163
