19
Iteration:  4166charge 0 multiplicity 1
 C        -3.072937        -1.487915         1.379618
 C        -1.822500        -0.572700         1.208726
 C        -1.936747         0.384665        -0.119564
 C        -1.535633        -0.856610        -1.002184
 C        -0.597393        -1.111768         0.386177
 O        -0.076448        -2.335174         0.641306
 C         0.284047         0.012359         0.234207
 O         1.484753        -0.083378         0.009548
 C        -0.702344         1.166065        -0.094551
 H        -3.247708        -1.878930         0.285971
 H        -2.820385        -2.339742         2.010501
 H        -4.043272        -1.172789         1.869332
 H        -1.775186        -0.132924         2.173685
 H        -2.815184         0.934975        -0.239610
 H        -2.263311        -1.683239        -1.249094
 H        -0.935887        -0.563038        -1.880786
 H         0.797981        -2.316623         0.173946
 H        -0.582261         1.805282         0.730897
 H        -0.377695         1.751311        -1.051649
