19
Iteration:   890
 C        -2.799442        -1.541066         1.496734
 C        -1.708744        -0.508008         1.172055
 C        -1.960778         0.406742        -0.103830
 C        -1.750229        -0.823983        -0.944338
 C        -0.675554        -1.175686         0.214693
 O        -0.218872        -2.467841         0.414048
 C         0.308943        -0.003915         0.061687
 O         1.489053         0.065436         0.398087
 C        -0.619348         1.130478        -0.222863
 H        -3.489303        -1.908042         0.658614
 H        -2.454370        -2.305866         2.238029
 H        -3.625136        -1.007334         2.071445
 H        -1.509704         0.171077         2.073031
 H        -2.847342         1.105533        -0.010788
 H        -2.481333        -1.757787        -0.955781
 H        -1.273342        -0.490891        -1.932374
 H         0.784964        -2.587940         0.463909
 H        -0.560315         1.816972         0.645328
 H        -0.539832         1.702513        -1.195502
