19
Iteration:   354
 C        -2.786129        -1.580714         1.738669
 C        -1.836057        -0.510991         1.088941
 C        -2.049619         0.385389        -0.212413
 C        -1.594608        -0.809248        -1.086074
 C        -0.662784        -1.091085         0.109588
 O        -0.192074        -2.384227         0.358904
 C         0.281623         0.025635         0.184263
 O         1.468181        -0.159592         0.400014
 C        -0.626227         1.241467        -0.146071
 H        -3.137669        -2.165362         0.913068
 H        -2.178083        -2.011911         2.521511
 H        -3.685088        -1.116506         2.218435
 H        -1.334592         0.056844         1.927831
 H        -3.035577         0.884280        -0.331814
 H        -2.426680        -1.570842        -1.131895
 H        -1.181994        -0.559355        -2.121328
 H         0.332358        -2.271639         1.225561
 H        -0.504579         1.969622         0.671472
 H        -0.119840         1.671867        -1.025140
