19
Iteration:  3089charge 0 multiplicity 1
 C        -3.032483        -1.482792         1.545844
 C        -1.901656        -0.526102         1.153334
 C        -2.008754         0.388682        -0.208230
 C        -1.602009        -0.955891        -0.965451
 C        -0.650645        -1.144055         0.379957
 O        -0.056094        -2.353551         0.474901
 C         0.297058         0.018323         0.125204
 O         1.543723         0.006668         0.285485
 C        -0.618197         1.125372        -0.242073
 H        -3.863448        -1.508316         0.904870
 H        -2.642968        -2.532777         1.438184
 H        -3.310520        -1.128106         2.578736
 H        -1.577704         0.003138         2.057607
 H        -2.871169         1.029141        -0.463889
 H        -2.312332        -1.813506        -0.897654
 H        -0.992402        -0.960139        -1.886681
 H         0.937105        -2.105556         0.328506
 H        -0.798097         1.907939         0.557902
 H        -0.303532         1.692242        -1.103999
