19
Iteration:  2219charge 0 multiplicity 1
 C        -3.042516        -1.517570         1.510671
 C        -1.810376        -0.626024         1.164802
 C        -1.935286         0.482522         0.064747
 C        -1.613009        -0.779427        -0.902719
 C        -0.555768        -1.179922         0.269749
 O        -0.212729        -2.503536         0.451164
 C         0.359035         0.014299         0.135013
 O         1.574098         0.025425         0.055713
 C        -0.668581         1.200045        -0.147038
 H        -3.622571        -1.812400         0.697334
 H        -2.647485        -2.493330         1.981754
 H        -3.800403        -1.188097         2.279210
 H        -1.541748        -0.118395         2.089025
 H        -2.904154         1.001655         0.050656
 H        -2.543199        -1.326305        -0.990902
 H        -1.245307        -0.623467        -1.940577
 H         0.779925        -2.558298         0.370097
 H        -0.563762         2.041521         0.549621
 H        -0.623425         1.713876        -1.202551
