19
Iteration:  1728charge 0 multiplicity 1
 C        -2.800283        -1.436953         1.455132
 C        -1.642881        -0.590575         1.206272
 C        -1.901734         0.421573        -0.051183
 C        -1.767121        -0.783357        -0.882423
 C        -0.702807        -1.223832         0.126146
 O        -0.107759        -2.430764         0.426177
 C         0.200688        -0.035177         0.069139
 O         1.380242        -0.032266         0.421853
 C        -0.621692         1.188946        -0.237174
 H        -2.958975        -2.092526         0.697357
 H        -2.908437        -2.070312         2.391889
 H        -3.756971        -0.888340         1.414456
 H        -1.058835        -0.034956         2.050216
 H        -2.845080         0.920247        -0.027348
 H        -2.607024        -1.502427        -0.986214
 H        -1.400392        -0.567560        -1.939745
 H         0.895028        -2.258933         0.564262
 H        -0.368347         1.936390         0.497278
 H        -0.657678         1.590901        -1.316288
