19
Iteration:  4214charge 0 multiplicity 1
 C        -3.041733        -1.358954         1.562756
 C        -1.840523        -0.486550         1.126872
 C        -1.937669         0.253662        -0.146753
 C        -1.548230        -0.897538        -1.049866
 C        -0.712329        -1.202251         0.209270
 O        -0.029730        -2.456896         0.466827
 C         0.292230        -0.024478         0.149606
 O         1.487774         0.088551         0.267665
 C        -0.643893         1.133604        -0.114609
 H        -3.530471        -1.460010         0.672269
 H        -2.796988        -2.351419         2.104870
 H        -3.781370        -0.977756         2.302735
 H        -1.481223        -0.108797         2.053298
 H        -2.997991         0.706409        -0.227495
 H        -2.327075        -1.579878        -1.108858
 H        -1.109821        -0.700780        -1.967710
 H         0.814434        -2.131093         0.983073
 H        -0.613839         1.965291         0.768594
 H        -0.448501         1.634792        -1.044759
