19
Iteration:  3072charge 0 multiplicity 1
 C        -3.011258        -1.421373         1.482182
 C        -1.816064        -0.502977         1.126831
 C        -1.980359         0.323375        -0.134445
 C        -1.496290        -0.896511        -0.991177
 C        -0.666963        -1.176952         0.250076
 O         0.053576        -2.348160         0.634346
 C         0.213944         0.009750         0.118627
 O         1.427953        -0.132049         0.188488
 C        -0.733409         1.208874        -0.144697
 H        -3.931528        -1.252803         0.827085
 H        -2.805433        -2.531437         1.315787
 H        -3.324243        -1.245493         2.504652
 H        -1.549300         0.130248         1.996183
 H        -2.989269         0.752136        -0.341620
 H        -2.282536        -1.601111        -1.173937
 H        -1.004521        -0.521958        -1.899627
 H         1.009884        -2.060815         0.842124
 H        -0.398645         1.928896         0.603828
 H        -0.675895         1.665091        -1.184724
