19
Iteration:  3785charge 0 multiplicity 1
 C        -2.803189        -1.480762         1.679500
 C        -1.821027        -0.451670         1.064871
 C        -1.970360         0.348410        -0.278149
 C        -1.569762        -0.910865        -1.026968
 C        -0.684719        -1.192922         0.133114
 O        -0.209567        -2.456204         0.501247
 C         0.264828         0.049689         0.160070
 O         1.434709         0.008414         0.443847
 C        -0.622361         1.193155        -0.187460
 H        -3.578593        -2.134781         1.116348
 H        -2.119412        -2.237799         2.097983
 H        -3.346665        -0.942566         2.470698
 H        -1.522970         0.163288         1.933515
 H        -2.849060         0.914629        -0.515751
 H        -2.399517        -1.596173        -1.128439
 H        -1.093167        -0.823005        -2.112753
 H         0.771342        -2.349083         0.370958
 H        -0.648337         2.026841         0.475831
 H        -0.477270         1.597508        -1.223897
