19
Iteration:   554
 C        -2.913487        -1.626467         1.553615
 C        -1.862090        -0.450749         1.197868
 C        -1.960103         0.403396        -0.111388
 C        -1.596656        -0.808040        -0.985981
 C        -0.634707        -1.082200         0.311359
 O        -0.268761        -2.398319         0.465152
 C         0.340901         0.055720         0.112128
 O         1.555136        -0.076708         0.130654
 C        -0.638167         1.152726        -0.093455
 H        -2.869610        -2.244237         0.597829
 H        -2.470332        -2.329952         2.259150
 H        -3.919796        -1.170710         1.814698
 H        -1.648279         0.150184         2.141053
 H        -2.938234         0.914017        -0.252497
 H        -2.316784        -1.718731        -0.898852
 H        -1.203496        -0.696366        -2.048992
 H         0.714387        -2.495959         0.477859
 H        -0.417637         1.933916         0.768533
 H        -0.478075         1.644328        -1.063100
