19
Iteration:  4480
 C        -2.910675        -1.482527         1.626606
 C        -1.815674        -0.539408         1.172281
 C        -1.901464         0.358432        -0.214006
 C        -1.528213        -0.896141        -1.096639
 C        -0.693207        -1.135373         0.235780
 O        -0.205565        -2.393691         0.559399
 C         0.276062         0.023248         0.135772
 O         1.486579         0.010785         0.207592
 C        -0.681277         1.149623        -0.089448
 H        -3.375183        -2.272030         0.813590
 H        -2.631681        -2.205508         2.463122
 H        -3.733796        -0.815264         1.973016
 H        -1.485494         0.137070         1.938429
 H        -2.717836         0.980253        -0.499726
 H        -2.338795        -1.642789        -1.159437
 H        -1.133130        -0.753506        -2.049587
 H         0.777072        -2.531921         0.271941
 H        -0.538809         1.743952         0.829952
 H        -0.402604         1.868386        -0.955235
