19
Iteration:  4512
 C        -2.930498        -1.381039         1.647750
 C        -1.827499        -0.491308         1.148580
 C        -2.009193         0.365658        -0.096810
 C        -1.580575        -0.906834        -1.070724
 C        -0.653743        -1.205831         0.168220
 O        -0.034620        -2.456213         0.384203
 C         0.274999         0.027056         0.195300
 O         1.468205        -0.046823         0.369851
 C        -0.695116         1.168302        -0.184409
 H        -3.397676        -2.053775         0.877653
 H        -2.575032        -1.784214         2.624340
 H        -3.798937        -0.741311         1.860915
 H        -1.608471         0.166549         1.984747
 H        -2.855181         0.956240        -0.376197
 H        -2.348170        -1.712969        -1.073559
 H        -1.272936        -0.661843        -2.021069
 H         0.890127        -2.410745         0.463517
 H        -0.492177         2.133409         0.316261
 H        -0.551519         1.354598        -1.272776
