19
Iteration:  1741charge 0 multiplicity 1
 C        -2.966528        -1.465477         1.536030
 C        -1.630450        -0.532806         1.286383
 C        -1.956799         0.447378         0.012289
 C        -1.715391        -0.842455        -0.954515
 C        -0.680608        -1.194429         0.210188
 O        -0.023706        -2.456407         0.294472
 C         0.248969         0.025087         0.015285
 O         1.348311        -0.098640         0.474446
 C        -0.614468         1.232246        -0.320459
 H        -2.869210        -2.125704         0.769196
 H        -2.811480        -2.133662         2.375721
 H        -3.939023        -0.874670         1.542989
 H        -1.181013        -0.168392         2.271898
 H        -2.875835         1.024935        -0.074554
 H        -2.663254        -1.402702        -0.923316
 H        -1.299991        -0.761207        -1.973484
 H         0.817019        -2.179221         0.587157
 H        -0.423455         2.188351         0.195963
 H        -0.301132         1.389146        -1.353105
