19
Iteration:  4987charge 0 multiplicity 1
 C        -2.964232        -1.502121         1.440210
 C        -1.801640        -0.526518         1.136397
 C        -2.017494         0.362493        -0.163012
 C        -1.519240        -0.831560        -0.913025
 C        -0.648157        -1.134791         0.300425
 O        -0.105571        -2.407961         0.629521
 C         0.270789        -0.027234         0.155050
 O         1.503225        -0.075541         0.068538
 C        -0.724702         1.220355        -0.097292
 H        -3.505481        -1.800266         0.552936
 H        -2.595236        -2.444292         1.968484
 H        -3.601012        -0.800906         2.072886
 H        -1.417898         0.049929         1.940451
 H        -3.049348         0.892867        -0.306255
 H        -2.198703        -1.665597        -0.941949
 H        -1.002618        -0.694144        -1.987361
 H         0.871659        -2.140159         0.676186
 H        -0.742735         1.973671         0.775744
 H        -0.400217         1.748047        -1.084335
