19
Iteration:  2011charge 0 multiplicity 1
 C        -2.763656        -1.536479         1.532985
 C        -1.783335        -0.518380         1.176019
 C        -2.024872         0.464740        -0.108197
 C        -1.742147        -0.827423        -0.991298
 C        -0.697492        -1.168496         0.172239
 O        -0.130331        -2.412923         0.436631
 C         0.276558        -0.007062         0.137867
 O         1.489102        -0.139989         0.323443
 C        -0.649862         1.275999        -0.144049
 H        -2.831757        -2.293912         0.820787
 H        -2.481037        -1.984173         2.580037
 H        -3.747985        -1.049692         1.555209
 H        -1.387235        -0.221424         2.242583
 H        -2.909298         1.086992        -0.174035
 H        -2.584965        -1.531050        -1.059409
 H        -1.447581        -0.608706        -2.036319
 H         0.860028        -2.421007         0.155189
 H        -0.508390         1.958750         0.632899
 H        -0.222917         1.828081        -1.043265
