19
Iteration:  2031
 C        -2.812287        -1.484418         1.682206
 C        -1.729861        -0.476188         1.140136
 C        -1.976219         0.377490        -0.191624
 C        -1.584278        -0.794149        -1.066088
 C        -0.649080        -1.102853         0.186321
 O        -0.215506        -2.353333         0.337439
 C         0.248162        -0.029107         0.108588
 O         1.432180        -0.133639         0.366219
 C        -0.713526         1.147635        -0.029056
 H        -2.895522        -2.305850         1.007024
 H        -2.202293        -1.909009         2.585758
 H        -3.751208        -1.190905         2.052677
 H        -1.261210         0.088435         2.044333
 H        -2.959407         0.791739        -0.176387
 H        -2.398448        -1.527258        -1.110102
 H        -0.988787        -0.818622        -1.955958
 H         0.601263        -2.594722        -0.218861
 H        -0.659758         1.982152         0.666765
 H        -0.488757         1.731354        -0.980476
