19
Iteration:   146
 C        -2.919629        -1.305932         1.461124
 C        -1.692193        -0.565848         1.223113
 C        -1.908642         0.372152         0.020413
 C        -1.744202        -0.864272        -0.909673
 C        -0.662740        -1.230841         0.233842
 O        -0.067125        -2.489801         0.273465
 C         0.274906        -0.070425         0.050551
 O         1.454784         0.041777         0.354668
 C        -0.662872         1.172655        -0.129470
 H        -2.894263        -2.151242         0.743283
 H        -2.998891        -1.782623         2.486498
 H        -3.890144        -0.841056         1.249937
 H        -1.313421        -0.140592         2.166029
 H        -2.834691         0.967989        -0.187431
 H        -2.796729        -1.387170        -0.939675
 H        -1.559285        -0.630384        -1.996614
 H         0.888638        -2.289972         0.636335
 H        -0.488868         1.850339         0.700525
 H        -0.659427         1.593822        -1.168274
