19
Iteration:   981
 C        -2.933749        -1.365209         1.587749
 C        -1.717350        -0.554685         1.112612
 C        -1.983214         0.365881        -0.106805
 C        -1.659223        -0.902043        -0.943914
 C        -0.696713        -1.213806         0.235382
 O        -0.076195        -2.447912         0.292275
 C         0.280157        -0.051921         0.155493
 O         1.479563         0.012928         0.329515
 C        -0.678650         1.206110        -0.100190
 H        -3.493763        -1.958166         0.720772
 H        -2.646974        -2.003217         2.420235
 H        -3.824391        -0.699119         1.968991
 H        -1.373737        -0.027452         2.031700
 H        -2.903132         0.894911        -0.240156
 H        -2.401905        -1.682885        -0.823236
 H        -1.157698        -0.810226        -1.945639
 H         0.862097        -2.080920         0.091860
 H        -0.604712         2.004626         0.726708
 H        -0.377939         1.620602        -1.045841
