19
Iteration:  1473charge 0 multiplicity 1
 C        -2.916294        -1.410074         1.559208
 C        -1.767431        -0.518664         1.201765
 C        -1.965039         0.401128        -0.094287
 C        -1.878864        -0.872870        -0.932865
 C        -0.753074        -1.229461         0.139898
 O         0.060380        -2.383105         0.263723
 C         0.286905        -0.012979         0.132292
 O         1.438703        -0.059374         0.515847
 C        -0.553156         1.109705        -0.254327
 H        -3.183693        -2.025286         0.556193
 H        -2.515880        -2.010175         2.368924
 H        -3.756429        -0.768786         1.757452
 H        -1.163691        -0.024966         2.046832
 H        -2.779784         1.137195         0.016930
 H        -2.690139        -1.649490        -0.940872
 H        -1.573248        -0.541137        -1.944360
 H         0.885932        -1.946765         0.641682
 H        -0.511395         2.037733         0.430108
 H        -0.267881         1.377836        -1.284107
