19
Iteration:  2442
 C        -2.985288        -1.401311         1.404348
 C        -1.770189        -0.580531         1.178946
 C        -1.926671         0.358939        -0.077002
 C        -1.673346        -0.841371        -0.964711
 C        -0.675958        -1.187441         0.223698
 O        -0.045397        -2.479380         0.511460
 C         0.289784         0.033021         0.133878
 O         1.491232         0.011119         0.066438
 C        -0.680966         1.140525         0.040029
 H        -3.809956        -0.600690         1.715665
 H        -3.485777        -1.981876         0.742477
 H        -2.864254        -2.000395         2.290367
 H        -1.623381        -0.000562         2.013716
 H        -2.813886         1.035221        -0.178090
 H        -2.553644        -1.490646        -0.894776
 H        -1.147756        -0.868292        -1.888955
 H         0.907852        -2.226414         0.616719
 H        -0.377559         1.676061         0.985086
 H        -0.424039         1.797068        -0.786509
