19
Iteration:  3473charge 0 multiplicity 1
 C        -2.713929        -1.550182         1.611367
 C        -1.814490        -0.473423         1.120388
 C        -2.029734         0.451828        -0.223711
 C        -1.681993        -0.881562        -0.973953
 C        -0.694120        -1.162656         0.241044
 O        -0.160563        -2.429316         0.350241
 C         0.282544        -0.020305         0.100627
 O         1.406364        -0.017481         0.613744
 C        -0.555024         1.194939        -0.388538
 H        -2.645787        -2.473080         1.138969
 H        -2.617646        -1.581177         2.774683
 H        -3.762817        -1.130455         1.584509
 H        -1.447494         0.140424         1.935635
 H        -2.984390         0.978360        -0.209639
 H        -2.504947        -1.632111        -0.862438
 H        -1.425139        -0.936031        -2.020077
 H         0.707963        -2.269576         0.858032
 H        -0.523527         2.134913         0.119362
 H        -0.385942         1.328875        -1.446213
