19
Iteration:  3891charge 0 multiplicity 1
 C        -3.148684        -1.409643         1.463095
 C        -1.866305        -0.673204         1.178298
 C        -1.965295         0.337686        -0.162283
 C        -1.455363        -0.827308        -0.973517
 C        -0.632258        -1.207590         0.413722
 O         0.063699        -2.322676         0.576175
 C         0.225435         0.035936         0.233213
 O         1.419572        -0.186570         0.007123
 C        -0.645087         1.284424        -0.095034
 H        -3.148513        -2.243165         0.711129
 H        -3.124751        -1.835022         2.547810
 H        -4.006864        -0.715788         1.564370
 H        -1.706306        -0.073241         2.135047
 H        -2.846142         0.820151        -0.619328
 H        -2.123327        -1.535507        -1.331883
 H        -0.802314        -0.530800        -1.798303
 H         0.963792        -1.968306         0.279096
 H        -0.860222         1.977063         0.728999
 H        -0.358365         1.874555        -1.096707
