19
Iteration:  3164charge 0 multiplicity 1
 C        -2.778516        -1.418456         1.740487
 C        -1.739641        -0.486132         1.006178
 C        -2.039701         0.369898        -0.179953
 C        -1.622540        -0.935069        -1.091319
 C        -0.663236        -1.208125         0.087980
 O        -0.110210        -2.458930         0.369450
 C         0.229584         0.061528         0.160286
 O         1.393028        -0.034127         0.599934
 C        -0.665351         1.183252        -0.289186
 H        -3.053975        -2.338692         1.253811
 H        -2.423292        -1.643330         2.722768
 H        -3.639075        -0.752939         1.954665
 H        -1.099544         0.017701         1.824707
 H        -2.934354         0.983893        -0.250972
 H        -2.477053        -1.688280        -1.049874
 H        -1.310493        -0.785875        -2.145362
 H         0.652793        -2.234810         0.993311
 H        -0.540623         2.055099         0.372493
 H        -0.485919         1.583282        -1.259851
