19
Iteration:  3927charge 0 multiplicity 1
 C        -2.983983        -1.414554         1.444681
 C        -1.916994        -0.535981         1.152858
 C        -2.022907         0.330889        -0.152301
 C        -1.635294        -0.893801        -0.953295
 C        -0.619686        -1.165880         0.233003
 O        -0.081637        -2.439281         0.607727
 C         0.353248         0.007899         0.107671
 O         1.586265         0.014308         0.162401
 C        -0.670858         1.188684        -0.083865
 H        -3.274928        -2.224988         0.647779
 H        -2.713625        -2.028508         2.278864
 H        -3.992186        -0.943860         1.519787
 H        -1.495062         0.107614         1.973436
 H        -2.914647         0.884584        -0.324031
 H        -2.350501        -1.710441        -1.092121
 H        -1.133979        -0.657942        -1.882566
 H         0.845382        -2.420643         0.830133
 H        -0.703773         1.810503         0.814274
 H        -0.512417         1.890543        -0.931957
