19
Iteration:  4793charge 0 multiplicity 1
 C        -2.829729        -1.502054         1.561988
 C        -1.760902        -0.523391         1.110866
 C        -1.979302         0.381932        -0.235988
 C        -1.749740        -0.907748        -1.005739
 C        -0.711296        -1.187323         0.226072
 O        -0.159584        -2.365022         0.496081
 C         0.293139        -0.025354         0.059016
 O         1.477069         0.024344         0.416110
 C        -0.580281         1.164289        -0.159914
 H        -3.257177        -1.937178         0.700922
 H        -2.353255        -2.366650         2.121070
 H        -3.559589        -0.986794         2.260623
 H        -1.368509         0.117479         1.908795
 H        -2.926180         0.971916        -0.411516
 H        -2.646183        -1.787407        -0.944041
 H        -1.235546        -0.707767        -1.868922
 H         0.813483        -2.080461         0.730586
 H        -0.504637         2.096714         0.520316
 H        -0.362975         1.442024        -1.145985
