19
Iteration:  3541
 C        -3.060958        -1.354854         1.597054
 C        -1.836584        -0.580396         1.143450
 C        -1.994960         0.327750        -0.228704
 C        -1.532668        -0.976137        -1.037331
 C        -0.689718        -1.182749         0.234014
 O        -0.043480        -2.421317         0.493849
 C         0.300107         0.022967         0.211758
 O         1.513129         0.018764         0.230313
 C        -0.670578         1.238610        -0.080270
 H        -3.569979        -1.793440         0.725308
 H        -2.841455        -2.174545         2.366070
 H        -3.665888        -0.694938         2.215425
 H        -1.525221         0.101413         1.979147
 H        -2.961446         0.777695        -0.524139
 H        -2.251591        -1.884311        -1.143007
 H        -0.921217        -1.020777        -1.979083
 H         0.859093        -2.275858         0.256835
 H        -0.619572         1.982372         0.664269
 H        -0.325699         1.596322        -1.084589
