19
Iteration:  1177
 C        -2.816620        -1.448596         1.781172
 C        -1.859869        -0.633061         1.020097
 C        -2.011931         0.451189        -0.129094
 C        -1.566469        -0.708966        -1.086750
 C        -0.697904        -1.182809         0.147338
 O        -0.099522        -2.429090         0.393168
 C         0.250816        -0.029837         0.102075
 O         1.443657        -0.105110         0.421656
 C        -0.668855         1.194379        -0.151629
 H        -3.534099        -2.193180         1.028920
 H        -2.181502        -2.155598         2.380289
 H        -3.465187        -0.764722         2.375699
 H        -1.249937        -0.121248         1.810782
 H        -3.002460         0.862096        -0.405097
 H        -2.284418        -1.486327        -1.336857
 H        -1.293744        -0.475974        -2.219096
 H         0.789124        -2.202088         0.697425
 H        -0.569767         1.916278         0.698988
 H        -0.403373         1.571384        -1.125935
