19
Iteration:  1319
 C        -3.064394        -1.485086         1.638393
 C        -1.879209        -0.607756         1.062030
 C        -1.987188         0.400273        -0.099726
 C        -1.544366        -0.792901        -1.051773
 C        -0.718329        -1.149284         0.214836
 O         0.007228        -2.310698         0.480222
 C         0.286490        -0.005733         0.132997
 O         1.492213        -0.160867         0.146971
 C        -0.603564         1.199900         0.005844
 H        -3.636949        -2.210368         0.955872
 H        -2.592945        -2.169088         2.321604
 H        -3.816145        -0.878199         2.097852
 H        -1.540050        -0.069791         1.952401
 H        -2.940679         0.926555        -0.274383
 H        -2.290407        -1.511108        -1.300283
 H        -1.094577        -0.746782        -2.040527
 H         0.936650        -2.001412         0.511487
 H        -0.675006         1.832665         0.917156
 H        -0.345469         1.771616        -0.871993
