19
Iteration:  3488
 C        -2.860700        -1.515026         1.640380
 C        -1.693596        -0.501802         1.115706
 C        -1.894947         0.367890        -0.170115
 C        -1.721470        -0.898756        -0.989481
 C        -0.659885        -1.107538         0.095174
 O        -0.144782        -2.366674         0.409338
 C         0.269202         0.068100         0.166498
 O         1.408632        -0.062970         0.566346
 C        -0.653564         1.155815        -0.382605
 H        -2.772845        -2.441532         0.946962
 H        -2.600103        -1.750665         2.733743
 H        -3.921325        -1.258255         1.652167
 H        -1.296280         0.049453         2.052135
 H        -2.751607         0.963875        -0.476261
 H        -2.640712        -1.615888        -0.887725
 H        -1.362026        -0.816983        -2.082108
 H         0.571091        -2.334996         1.054055
 H        -0.522899         1.996112         0.324593
 H        -0.481644         1.377084        -1.491433
