19
Iteration:  1228charge 0 multiplicity 1
 C        -2.767347        -1.515383         1.526361
 C        -1.823955        -0.454795         1.149584
 C        -1.937371         0.424932        -0.108074
 C        -1.730058        -0.831146        -0.955733
 C        -0.669204        -1.147737         0.181093
 O        -0.145456        -2.485638         0.310441
 C         0.263643         0.052796         0.123537
 O         1.413293        -0.075933         0.467288
 C        -0.626751         1.200305        -0.215983
 H        -3.108648        -2.233034         0.886316
 H        -2.235927        -2.171777         2.292163
 H        -3.361812        -0.907677         2.172599
 H        -1.421711         0.009387         2.081519
 H        -2.829798         1.006049        -0.280427
 H        -2.502130        -1.578427        -1.032122
 H        -1.297364        -0.931845        -1.930674
 H         0.755134        -2.307962         0.684236
 H        -0.595472         1.886472         0.645368
 H        -0.337275         1.581120        -1.234464
