19
Iteration:  4724
 C        -3.052763        -1.421956         1.536131
 C        -1.880433        -0.498922         1.048863
 C        -1.981516         0.357894        -0.156149
 C        -1.572614        -0.948740        -0.945014
 C        -0.619020        -1.233005         0.250375
 O        -0.003651        -2.416784         0.548358
 C         0.280368         0.028850         0.117246
 O         1.493443        -0.016332         0.110329
 C        -0.652848         1.224381         0.022062
 H        -3.498641        -2.046504         0.706073
 H        -2.867133        -2.076595         2.413649
 H        -3.877910        -0.765923         1.808539
 H        -1.524506         0.043719         1.999137
 H        -2.912616         0.915075        -0.451330
 H        -2.441661        -1.569199        -0.929564
 H        -1.068978        -0.918602        -1.965090
 H         0.931877        -2.235219         0.709043
 H        -0.607670         1.935059         0.792781
 H        -0.353326         1.658611        -0.967380
