19
Iteration:   821charge 0 multiplicity 1
 C        -3.002195        -1.471021         1.556553
 C        -1.842466        -0.527491         1.150089
 C        -1.964299         0.343973        -0.147318
 C        -1.554658        -0.915410        -1.042558
 C        -0.659260        -1.139138         0.268055
 O        -0.090499        -2.375858         0.452870
 C         0.277354         0.024583         0.115583
 O         1.484657        -0.097635         0.121620
 C        -0.671205         1.222670         0.071674
 H        -3.588715        -1.939711         0.811752
 H        -2.454660        -2.065225         2.360004
 H        -3.621037        -0.754084         2.145819
 H        -1.487668         0.037736         2.061704
 H        -2.835468         0.959635        -0.310600
 H        -2.324928        -1.618455        -1.288965
 H        -0.908435        -0.652482        -1.954892
 H         0.871011        -2.223430         0.322468
 H        -0.690415         1.718772         1.028207
 H        -0.402154         1.765108        -0.897640
