19
Iteration:  1731
 C        -2.827321        -1.434359         1.487928
 C        -1.633022        -0.590133         1.242181
 C        -1.893834         0.409047        -0.058966
 C        -1.763165        -0.772292        -0.877686
 C        -0.700856        -1.220081         0.136506
 O        -0.083505        -2.437378         0.403984
 C         0.198131        -0.022019         0.047101
 O         1.362290        -0.045700         0.433502
 C        -0.627530         1.208962        -0.257797
 H        -2.941560        -2.081676         0.612884
 H        -2.923236        -2.114473         2.299700
 H        -3.849417        -0.944878         1.339570
 H        -1.057936        -0.055994         1.989245
 H        -2.844550         0.949556        -0.031665
 H        -2.577634        -1.484161        -0.955715
 H        -1.383813        -0.635754        -1.881645
 H         0.817818        -2.276303         0.572509
 H        -0.327159         2.029979         0.431798
 H        -0.539006         1.505640        -1.260953
