19
Iteration:   278charge 0 multiplicity 1
 C        -3.150435        -1.424313         1.455137
 C        -1.777037        -0.688694         1.263576
 C        -1.958988         0.415668        -0.018214
 C        -1.652091        -0.778352        -0.882491
 C        -0.638056        -1.191991         0.261905
 O        -0.008495        -2.504040         0.443273
 C         0.283142         0.024665         0.207926
 O         1.492127         0.039387         0.161227
 C        -0.562309         1.216046        -0.215087
 H        -3.508870        -1.679205         0.451418
 H        -2.990176        -2.420391         1.939759
 H        -3.960422        -0.795824         1.984210
 H        -1.261024        -0.465285         2.275529
 H        -2.910648         1.031104        -0.095743
 H        -2.373157        -1.703367        -0.967316
 H        -1.190833        -0.565262        -1.963736
 H         0.711878        -2.444278        -0.131476
 H        -0.459662         2.164925         0.358118
 H        -0.454549         1.549701        -1.248901
