19
Iteration:  4126
 C        -2.935611        -1.623764         1.442553
 C        -1.906326        -0.511194         1.123165
 C        -1.949032         0.395087        -0.175962
 C        -1.569993        -0.812784        -1.085816
 C        -0.632223        -1.102003         0.337045
 O        -0.124855        -2.347572         0.666336
 C         0.293316         0.064271         0.163150
 O         1.493040        -0.163739         0.022622
 C        -0.645813         1.221495        -0.002266
 H        -3.043022        -2.332808         0.656313
 H        -2.740215        -2.233016         2.360335
 H        -3.841378        -1.061249         1.739739
 H        -1.391220        -0.032310         2.015055
 H        -2.803175         1.114089        -0.361515
 H        -2.360435        -1.553316        -1.240013
 H        -0.988980        -0.678357        -1.951642
 H         0.672151        -2.346898         1.159196
 H        -0.946902         1.889204         0.922554
 H        -0.433604         1.955329        -0.810945
