19
Iteration:  1076
 C        -2.977699        -1.493427         1.585889
 C        -1.881098        -0.542738         1.111239
 C        -1.986927         0.340265        -0.110686
 C        -1.522537        -0.743474        -1.069635
 C        -0.618675        -1.158122         0.238925
 O        -0.047480        -2.397460         0.514086
 C         0.260630         0.037750         0.158782
 O         1.437291        -0.177070         0.114941
 C        -0.651298         1.236610         0.024416
 H        -3.519705        -1.895220         0.712469
 H        -2.363606        -2.131643         2.192343
 H        -3.737970        -1.049168         2.207062
 H        -1.518043         0.026343         1.960493
 H        -2.918985         0.859885        -0.257172
 H        -2.231406        -1.602856        -1.051147
 H        -1.163103        -0.399444        -2.049598
 H         0.808142        -2.400080         0.094955
 H        -0.662276         1.920997         0.868302
 H        -0.532729         1.850126        -0.870548
