19
Iteration:  2804
 C        -2.932650        -1.522741         1.544849
 C        -1.886465        -0.500730         1.037223
 C        -2.016960         0.370757        -0.204987
 C        -1.564436        -0.900571        -1.064606
 C        -0.685756        -1.119831         0.212869
 O        -0.020607        -2.319707         0.710396
 C         0.240978        -0.014059         0.117667
 O         1.455668        -0.090092         0.261244
 C        -0.637509         1.196997        -0.157402
 H        -3.873328        -0.936514         1.843491
 H        -3.241468        -2.277775         0.853917
 H        -2.574552        -2.170960         2.366115
 H        -1.664609         0.093131         1.930992
 H        -2.827392         0.953418        -0.551990
 H        -2.448489        -1.467393        -0.966457
 H        -0.993009        -0.928307        -1.958830
 H         0.958108        -2.221270         0.755074
 H        -0.253478         1.901891         0.642248
 H        -0.386222         1.608373        -1.144039
