19
Iteration:  4656charge 0 multiplicity 1
 C        -3.026635        -1.541074         1.498926
 C        -1.799368        -0.512323         1.184257
 C        -1.981907         0.424279        -0.164105
 C        -1.605794        -0.839834        -0.958875
 C        -0.658188        -1.138756         0.308063
 O        -0.066099        -2.436379         0.605393
 C         0.270868        -0.022235         0.070337
 O         1.483596        -0.029318         0.186306
 C        -0.621944         1.182321        -0.175012
 H        -3.101325        -2.143115         0.487741
 H        -2.803497        -2.353459         2.167605
 H        -3.873426        -0.999980         1.882208
 H        -1.605942         0.242993         2.008389
 H        -2.849750         1.041656        -0.291703
 H        -2.424513        -1.485104        -0.993596
 H        -1.065459        -0.574892        -1.916668
 H         0.955742        -2.402853         0.532426
 H        -0.564318         1.869794         0.600676
 H        -0.406100         1.739729        -1.162715
