19
Iteration:  2880
 C        -2.953693        -1.439327         1.639710
 C        -1.681248        -0.483440         1.032565
 C        -1.929269         0.337762        -0.290238
 C        -1.756493        -1.027282        -0.971448
 C        -0.690295        -1.267362         0.172585
 O        -0.032528        -2.457683         0.407575
 C         0.304101         0.011470         0.085269
 O         1.408494         0.204808         0.605866
 C        -0.583454         1.171871        -0.293340
 H        -3.415859        -0.788547         2.509305
 H        -3.777991        -1.184274         1.015668
 H        -3.010940        -2.524181         1.925414
 H        -1.145071         0.005184         1.838474
 H        -2.858014         0.862158        -0.282890
 H        -2.571993        -1.733147        -0.835340
 H        -1.393111        -1.022198        -1.999148
 H         0.468760        -2.522575         1.305463
 H        -0.618186         2.120371         0.310406
 H        -0.337241         1.307132        -1.363530
