19
Iteration:   935charge 0 multiplicity 1
 C        -2.897860        -1.327131         1.780858
 C        -1.806584        -0.598055         1.099760
 C        -2.056774         0.302405        -0.151253
 C        -1.600556        -0.853265        -1.092047
 C        -0.686841        -1.146030         0.196699
 O         0.001033        -2.366469         0.241959
 C         0.263978         0.014547         0.114460
 O         1.435735        -0.136752         0.432597
 C        -0.652777         1.152940        -0.140429
 H        -3.667148        -1.821697         1.039621
 H        -2.618616        -2.053184         2.542214
 H        -3.669862        -0.715993         2.323593
 H        -1.354961        -0.119996         2.023625
 H        -2.999804         0.798361        -0.366614
 H        -2.548807        -1.505550        -1.091767
 H        -1.034729        -0.542675        -2.030941
 H         0.991698        -2.071612         0.561865
 H        -0.518610         1.904770         0.693579
 H        -0.451506         1.740994        -1.051108
