19
Iteration:   297charge 0 multiplicity 1
 C        -3.052852        -1.350256         1.496567
 C        -1.775000        -0.617403         1.186652
 C        -1.937440         0.305386         0.028419
 C        -1.592076        -0.877118        -0.962910
 C        -0.624495        -1.231008         0.240600
 O        -0.097872        -2.432550         0.358020
 C         0.347491         0.074094         0.163888
 O         1.570088         0.006653         0.272990
 C        -0.750065         1.188146        -0.139759
 H        -3.654553        -1.774359         0.693294
 H        -3.144767        -2.142831         2.256300
 H        -3.607355        -0.516992         1.858525
 H        -1.494185        -0.277028         2.207102
 H        -2.948262         0.841287        -0.022046
 H        -2.541007        -1.514583        -1.150056
 H        -1.078997        -0.693236        -1.855876
 H         0.596749        -2.433089        -0.258906
 H        -0.573980         2.075333         0.404998
 H        -0.619940         1.459877        -1.245724
