19
Iteration:   818charge 0 multiplicity 1
 C        -3.018567        -1.451531         1.533979
 C        -1.832224        -0.542728         1.143797
 C        -1.959155         0.355328        -0.125736
 C        -1.571510        -0.918462        -1.065469
 C        -0.659374        -1.153207         0.264864
 O        -0.061149        -2.358647         0.459747
 C         0.264295         0.035043         0.128918
 O         1.491203        -0.106853         0.117278
 C        -0.680263         1.223776         0.053014
 H        -3.654057        -2.002354         0.835797
 H        -2.517326        -1.954189         2.396777
 H        -3.630500        -0.819866         2.211997
 H        -1.450638        -0.060227         2.052942
 H        -2.847595         0.921368        -0.314440
 H        -2.355455        -1.656436        -1.141536
 H        -0.928469        -0.632029        -1.850545
 H         0.883974        -2.446405         0.284299
 H        -0.715765         1.790100         1.038290
 H        -0.318968         1.841231        -0.814689
