19
Iteration:  1135charge 0 multiplicity 1
 C        -2.964910        -1.342135         1.444752
 C        -1.741216        -0.536258         1.223100
 C        -2.075042         0.370827        -0.077615
 C        -1.635306        -0.915753        -0.838136
 C        -0.619209        -1.180122         0.212150
 O        -0.108667        -2.479790         0.272764
 C         0.323914         0.019123         0.175429
 O         1.541889         0.020113         0.273491
 C        -0.689805         1.155908        -0.102841
 H        -3.466260        -1.865552         0.620414
 H        -2.880425        -2.205062         2.026272
 H        -3.594975        -0.674429         2.028901
 H        -1.432551        -0.200224         2.255954
 H        -2.920720         1.074199        -0.223572
 H        -2.290035        -1.781922        -0.810005
 H        -1.313500        -0.946023        -1.928672
 H         0.851055        -2.284213         0.379742
 H        -0.568981         1.915132         0.688404
 H        -0.626760         1.578385        -1.083106
