19
Iteration:  3016
 C        -3.133015        -1.562815         1.378245
 C        -1.959859        -0.458371         1.253459
 C        -1.941847         0.398636        -0.285324
 C        -1.521730        -0.961320        -0.833150
 C        -0.618843        -1.117245         0.422534
 O        -0.119432        -2.398859         0.691488
 C         0.377583         0.026923         0.140266
 O         1.612307         0.027957        -0.060623
 C        -0.689282         1.166904        -0.102144
 H        -4.094087        -1.218522         0.991121
 H        -2.781758        -2.542653         0.817446
 H        -3.183046        -1.864284         2.469228
 H        -1.733328         0.088595         2.194612
 H        -2.941767         0.866387        -0.465291
 H        -2.258337        -1.724257        -0.940240
 H        -0.925167        -0.933430        -1.768150
 H         0.833633        -2.227273         0.338025
 H        -0.707108         1.908010         0.739575
 H        -0.381184         1.788466        -1.014870
