19
Iteration:  1754
 C        -2.938097        -1.453291         1.593456
 C        -1.807257        -0.522501         1.210070
 C        -1.945342         0.454677         0.009521
 C        -1.703034        -0.887807        -0.916210
 C        -0.704052        -1.179975         0.168323
 O        -0.001554        -2.381169         0.192795
 C         0.290672        -0.008944         0.150035
 O         1.454438        -0.112243         0.497734
 C        -0.619271         1.177078        -0.363801
 H        -3.397877        -2.272765         0.965989
 H        -2.746540        -1.804624         2.559343
 H        -3.872616        -0.835790         1.770493
 H        -1.384154        -0.087093         2.088561
 H        -2.910615         1.012359        -0.033439
 H        -2.488162        -1.616520        -1.049720
 H        -1.282080        -0.641311        -1.868209
 H         0.943277        -2.204344         0.560852
 H        -0.346095         2.087283         0.232519
 H        -0.774765         1.417453        -1.352372
