19
Iteration:  2396charge 0 multiplicity 1
 C        -2.908711        -1.483423         1.646416
 C        -1.832168        -0.535104         1.151496
 C        -1.975653         0.408702        -0.079563
 C        -1.537736        -0.788211        -1.019003
 C        -0.675232        -1.158113         0.274000
 O        -0.105253        -2.318687         0.325741
 C         0.245452        -0.015040         0.173672
 O         1.455061        -0.206770         0.261188
 C        -0.667248         1.192371        -0.148344
 H        -4.041252        -1.458763         1.256785
 H        -2.683310        -2.528608         1.365073
 H        -2.985150        -1.534284         2.769953
 H        -1.309590        -0.159313         1.965816
 H        -2.801576         1.134597        -0.315813
 H        -2.290872        -1.594564        -1.078895
 H        -1.056526        -0.397875        -1.882406
 H         0.927649        -2.143904         0.280844
 H        -0.788190         2.021022         0.592362
 H        -0.489380         1.725181        -1.190256
