19
Iteration:  1990charge 0 multiplicity 1
 C        -2.965922        -1.612255         1.472804
 C        -1.734349        -0.555985         1.156109
 C        -1.909534         0.419733         0.023322
 C        -1.778843        -0.700263        -0.922674
 C        -0.694544        -1.183858         0.197065
 O        -0.083173        -2.408384         0.469169
 C         0.303429         0.006132         0.056119
 O         1.508526        -0.023468         0.236802
 C        -0.587812         1.133463        -0.167771
 H        -3.070777        -2.329458         0.710108
 H        -2.822116        -2.193478         2.485430
 H        -3.922593        -1.025819         1.426045
 H        -1.470455         0.008401         2.130729
 H        -2.686560         1.168135        -0.104437
 H        -2.658624        -1.355524        -0.921327
 H        -1.511891        -0.533084        -2.001588
 H         0.628532        -2.221285         1.079729
 H        -0.380272         1.912865         0.496703
 H        -0.628609         1.507907        -1.238525
