19
Iteration:   141charge 0 multiplicity 1
 C        -2.945752        -1.319392         1.491255
 C        -1.757340        -0.517280         1.238959
 C        -1.969596         0.356132         0.017319
 C        -1.731325        -0.841610        -0.891646
 C        -0.689940        -1.290495         0.172223
 O        -0.017241        -2.465663         0.244420
 C         0.268580        -0.029767         0.054312
 O         1.481295         0.017406         0.366244
 C        -0.615333         1.131788        -0.147438
 H        -2.899903        -2.269192         0.945275
 H        -2.867817        -1.624926         2.511541
 H        -3.870222        -0.778216         1.252566
 H        -1.439243        -0.079622         2.201813
 H        -2.887512         0.875605        -0.145824
 H        -2.600232        -1.362577        -0.927652
 H        -1.417651        -0.503818        -1.869566
 H         0.797570        -2.283827         0.653598
 H        -0.445427         1.877366         0.658331
 H        -0.635826         1.557878        -1.134426
