19
Iteration:   438charge 0 multiplicity 1
 C        -3.062271        -1.327320         1.638263
 C        -1.825896        -0.578779         1.197109
 C        -1.974040         0.299939        -0.094251
 C        -1.545212        -0.853075        -1.047010
 C        -0.586777        -1.172609         0.152799
 O        -0.059062        -2.480407         0.372983
 C         0.295200        -0.000059         0.102157
 O         1.485657        -0.019370         0.284851
 C        -0.706558         1.187379        -0.049319
 H        -3.690324        -1.726992         0.813728
 H        -3.018765        -2.273028         2.257652
 H        -3.610146        -0.599786         2.223099
 H        -1.410996         0.022690         1.988563
 H        -2.905967         0.920626        -0.331055
 H        -2.246231        -1.713935        -1.351916
 H        -1.090447        -0.420226        -1.868231
 H         0.971834        -2.309296         0.443057
 H        -0.606748         1.926407         0.728146
 H        -0.482739         1.612359        -1.086240
