19
Iteration:  1540
 C        -2.802792        -1.471220         1.698903
 C        -1.828147        -0.437979         0.969501
 C        -2.005024         0.408111        -0.250909
 C        -1.661717        -0.855829        -1.053263
 C        -0.593123        -1.205271         0.128933
 O        -0.263024        -2.531420         0.399833
 C         0.294461        -0.008854         0.179084
 O         1.510671         0.066638         0.326437
 C        -0.646321         1.153265         0.041709
 H        -3.152781        -2.333674         0.978853
 H        -2.040906        -1.979148         2.472041
 H        -3.739034        -1.026558         2.202685
 H        -1.443398         0.130536         1.904436
 H        -2.842463         1.021825        -0.610317
 H        -2.366186        -1.713896        -1.030690
 H        -1.194594        -0.547014        -2.045928
 H         0.551627        -2.435525         0.833424
 H        -0.766858         1.642447         1.008394
 H        -0.196430         1.805607        -0.768521
