19
Iteration:  3139charge 0 multiplicity 1
 C        -2.782634        -1.419869         1.646711
 C        -1.616375        -0.471000         1.143200
 C        -2.024182         0.276067        -0.167210
 C        -1.584408        -0.848097        -1.047914
 C        -0.683124        -1.243956         0.186231
 O        -0.213263        -2.466563         0.426790
 C         0.305362        -0.032044         0.017021
 O         1.365733         0.106241         0.554256
 C        -0.700080         1.133913        -0.306675
 H        -3.312438        -1.847094         0.689421
 H        -2.536253        -2.254307         2.264264
 H        -3.442557        -0.721954         2.109660
 H        -1.062948         0.126391         1.889816
 H        -3.030221         0.649010        -0.237884
 H        -2.469748        -1.437691        -1.308600
 H        -1.029968        -0.577682        -1.931878
 H         0.403475        -2.366770         1.125645
 H        -0.577560         1.886010         0.468266
 H        -0.495494         1.681358        -1.277728
