19
Iteration:  1266
 C        -2.982916        -1.411935         1.532742
 C        -1.731904        -0.651994         1.231913
 C        -1.965932         0.364465         0.021873
 C        -1.598064        -0.855967        -0.968821
 C        -0.638311        -1.188707         0.218592
 O        -0.175956        -2.479033         0.284212
 C         0.320600         0.030697         0.118488
 O         1.498396         0.126624         0.337434
 C        -0.631687         1.102954        -0.212543
 H        -3.667368        -1.875187         0.718465
 H        -2.851069        -2.063739         2.373994
 H        -3.745009        -0.648542         1.808366
 H        -1.459491        -0.288146         2.196767
 H        -2.842052         1.030595        -0.122140
 H        -2.407909        -1.623036        -1.160802
 H        -1.195930        -0.423311        -1.940443
 H         0.719613        -2.548156         0.793252
 H        -0.549634         1.999345         0.413193
 H        -0.551584         1.517415        -1.195842
