19
Iteration:  1409charge 0 multiplicity 1
 C        -2.963993        -1.390683         1.729730
 C        -1.845931        -0.592665         1.093736
 C        -1.976987         0.330518        -0.140314
 C        -1.401297        -0.757789        -1.083990
 C        -0.654391        -1.219475         0.196550
 O        -0.205396        -2.493769         0.432770
 C         0.247185        -0.027558         0.160028
 O         1.472477         0.065135         0.149881
 C        -0.664197         1.130721         0.034185
 H        -3.744926        -1.855644         1.107214
 H        -2.557588        -2.212501         2.309393
 H        -3.673677        -0.770376         2.229279
 H        -1.352430        -0.042743         1.885516
 H        -2.718093         1.074195        -0.436428
 H        -2.106581        -1.534199        -1.456162
 H        -0.832555        -0.494953        -1.999783
 H         0.713201        -2.436681         0.599793
 H        -0.699950         2.025791         0.634146
 H        -0.324951         1.538617        -0.937321
