19
Iteration:   835charge 0 multiplicity 1
 C        -2.880635        -1.474189         1.634374
 C        -1.869011        -0.497980         1.129089
 C        -2.004942         0.370986        -0.151230
 C        -1.481195        -0.788132        -1.006905
 C        -0.734027        -1.185017         0.244858
 O        -0.144332        -2.405719         0.442169
 C         0.270445        -0.010653         0.146227
 O         1.512078        -0.061108         0.134713
 C        -0.671053         1.147757        -0.028596
 H        -3.263573        -1.903025         0.655122
 H        -2.697185        -2.400962         2.160997
 H        -3.792856        -1.152678         2.182117
 H        -1.508858         0.162152         1.949619
 H        -2.950905         0.886622        -0.507057
 H        -2.305268        -1.605113        -1.034920
 H        -0.847877        -0.563815        -1.939610
 H         0.853037        -2.363235         0.760035
 H        -0.594745         1.828947         0.811705
 H        -0.466824         1.939970        -0.747361
