19
Iteration:  4535charge 0 multiplicity 1
 C        -2.911389        -1.317631         1.592728
 C        -1.667171        -0.511342         1.176912
 C        -1.984192         0.348217        -0.161548
 C        -1.702248        -0.965063        -0.914376
 C        -0.759837        -1.221626         0.201808
 O         0.011949        -2.376839         0.293429
 C         0.253746        -0.037820         0.099425
 O         1.404111        -0.028942         0.495861
 C        -0.666616         1.159619        -0.270607
 H        -3.299513        -1.859962         0.635506
 H        -2.666454        -1.943925         2.464563
 H        -3.836754        -0.754165         1.778089
 H        -1.188353         0.021362         1.968328
 H        -2.907833         0.828036        -0.379906
 H        -2.456312        -1.707219        -1.008532
 H        -1.304763        -0.683428        -1.827469
 H         0.863511        -2.274141         0.860346
 H        -0.416663         1.800612         0.549890
 H        -0.327029         1.724598        -1.220531
