19
Iteration:   346charge 0 multiplicity 1
 C        -2.818126        -1.465217         1.702819
 C        -1.801240        -0.525823         1.044277
 C        -1.988011         0.455251        -0.194180
 C        -1.606517        -0.838250        -1.092037
 C        -0.744080        -1.236507         0.114736
 O        -0.147085        -2.398846         0.350419
 C         0.260378         0.025625         0.185732
 O         1.485225        -0.108073         0.378746
 C        -0.664840         1.222054        -0.067015
 H        -3.067221        -2.371733         1.090185
 H        -2.185116        -2.005795         2.409630
 H        -3.735949        -1.223343         2.334421
 H        -1.351174        -0.028003         1.922293
 H        -2.818112         1.062862        -0.373491
 H        -2.300199        -1.624904        -1.042585
 H        -1.224372        -0.762416        -2.233811
 H         0.396965        -2.219207         1.228710
 H        -0.618651         2.035547         0.725479
 H        -0.296407         1.716157        -0.928546
