19
Iteration:  4990
 C        -2.970140        -1.494124         1.435853
 C        -1.784349        -0.545659         1.139558
 C        -2.017791         0.373138        -0.165045
 C        -1.503091        -0.834356        -0.936848
 C        -0.643450        -1.126467         0.326928
 O        -0.105976        -2.404320         0.617350
 C         0.279977        -0.030765         0.160682
 O         1.500833        -0.065816         0.068508
 C        -0.737009         1.212375        -0.108578
 H        -3.601219        -1.800438         0.622779
 H        -2.609807        -2.371885         1.977863
 H        -3.676667        -0.857485         2.097030
 H        -1.437415         0.015853         2.053536
 H        -2.953352         0.946678        -0.259066
 H        -2.294279        -1.749708        -1.015342
 H        -1.111667        -0.747237        -1.939845
 H         0.878176        -2.195017         0.691167
 H        -0.745222         2.045695         0.679718
 H        -0.389205         1.697746        -0.973485
