19
Iteration:  2204
 C        -2.946154        -1.566782         1.498813
 C        -1.878072        -0.512042         1.230004
 C        -1.984234         0.363121        -0.059738
 C        -1.588153        -0.789257        -0.885895
 C        -0.700656        -1.145982         0.323976
 O        -0.251286        -2.474938         0.411150
 C         0.339443         0.013798         0.124393
 O         1.574288         0.037973         0.012909
 C        -0.584621         1.207481        -0.040276
 H        -3.757789        -1.634509         0.725966
 H        -2.445509        -2.566760         1.677099
 H        -3.407563        -1.146740         2.358634
 H        -1.468710        -0.113386         2.147179
 H        -2.834279         0.942310        -0.377334
 H        -2.187171        -1.711198        -0.892918
 H        -1.156217        -0.612210        -1.877301
 H         0.778976        -2.510235         0.575740
 H        -0.314258         1.997956         0.737716
 H        -0.405620         1.619466        -1.021078
