19
Iteration:  2196
 C        -2.917448        -1.551287         1.490911
 C        -1.812906        -0.488884         1.250476
 C        -2.015792         0.424086        -0.085279
 C        -1.560680        -0.881637        -0.929336
 C        -0.670573        -1.119024         0.324904
 O        -0.269984        -2.461716         0.411814
 C         0.330882         0.023085         0.116400
 O         1.530405         0.007303         0.012356
 C        -0.580945         1.150658         0.007727
 H        -3.700832        -1.581318         0.826145
 H        -2.458753        -2.633926         1.678618
 H        -3.448696        -1.450483         2.478169
 H        -1.503735         0.089109         2.103813
 H        -2.927097         0.976420        -0.302834
 H        -2.385418        -1.567209        -1.178731
 H        -1.006151        -0.647750        -1.869463
 H         0.680182        -2.213632         0.644942
 H        -0.622913         1.956954         0.777093
 H        -0.201520         1.772439        -0.921405
