19
Iteration:  2047
 C        -2.770825        -1.487632         1.791635
 C        -1.791690        -0.574748         1.124487
 C        -2.038957         0.403132        -0.175566
 C        -1.559615        -0.802939        -1.091009
 C        -0.740147        -1.187681         0.149094
 O        -0.231479        -2.510180         0.317313
 C         0.292824         0.016757         0.213566
 O         1.513549        -0.033551         0.356761
 C        -0.678427         1.244964        -0.133640
 H        -3.311556        -2.198528         1.096169
 H        -2.428971        -2.039512         2.616904
 H        -3.552408        -0.744786         2.179093
 H        -1.300933         0.049046         1.888305
 H        -2.923384         1.007515        -0.498963
 H        -2.279121        -1.595109        -1.332045
 H        -1.077844        -0.366593        -2.003414
 H         0.741384        -2.340804         0.034490
 H        -0.708140         1.832301         0.811287
 H        -0.370099         1.861205        -0.980429
