19
Iteration:  4611
 C        -2.822075        -1.481984         1.667774
 C        -1.847813        -0.482797         1.167955
 C        -2.016338         0.352942        -0.278678
 C        -1.596203        -0.858111        -1.061928
 C        -0.605516        -1.164403         0.212727
 O        -0.184114        -2.469788         0.464877
 C         0.277935         0.024329         0.136689
 O         1.469252        -0.039593         0.351617
 C        -0.685783         1.241684        -0.190660
 H        -3.349223        -1.904304         0.752919
 H        -2.543681        -2.371322         2.236037
 H        -3.345326        -0.822025         2.339843
 H        -1.277145         0.010811         2.011193
 H        -2.917479         0.804396        -0.648257
 H        -2.399221        -1.612914        -0.932975
 H        -1.053749        -0.715283        -2.071070
 H         0.679623        -2.374266         0.998039
 H        -0.626681         1.895415         0.641349
 H        -0.320143         1.772935        -1.098954
