19
Iteration:  3056
 C        -3.007525        -1.386701         1.417339
 C        -1.731557        -0.639900         1.168264
 C        -1.988241         0.331448        -0.160776
 C        -1.557296        -0.833725        -1.080068
 C        -0.680167        -1.226644         0.278636
 O         0.053599        -2.286713         0.778715
 C         0.226086         0.016308         0.135363
 O         1.428858        -0.147913         0.076275
 C        -0.735477         1.226357        -0.085851
 H        -3.764270        -0.906811         0.854565
 H        -2.894785        -2.481372         1.210130
 H        -3.474646        -1.392769         2.450154
 H        -1.234706        -0.288091         2.066975
 H        -2.905631         0.870265        -0.453185
 H        -2.395141        -1.545245        -1.331642
 H        -0.992305        -0.765484        -2.010295
 H         0.924162        -1.942530         0.899727
 H        -1.078281         1.980731         0.684762
 H        -0.343903         1.690223        -0.980870
