19
Iteration:  2630
 C        -2.824339        -1.348362         1.600883
 C        -1.794911        -0.496209         1.107549
 C        -1.953595         0.308033        -0.160049
 C        -1.677534        -0.879917        -0.981583
 C        -0.670127        -1.211161         0.158355
 O        -0.078268        -2.465265         0.380666
 C         0.257316         0.057214         0.076439
 O         1.398941         0.004121         0.520679
 C        -0.651048         1.154820        -0.221758
 H        -2.748123        -2.376778         1.090684
 H        -2.839719        -1.606487         2.637521
 H        -3.821885        -0.991532         1.311460
 H        -1.272697        -0.047117         1.977347
 H        -2.905255         0.755954        -0.330481
 H        -2.502804        -1.588184        -0.852380
 H        -1.301764        -1.016881        -2.013425
 H         0.916469        -2.331803         0.651167
 H        -0.538731         2.038032         0.485010
 H        -0.482804         1.645504        -1.193349
