19
Iteration:  2245charge 0 multiplicity 1
 C        -2.905100        -1.369357         1.530016
 C        -1.720580        -0.657050         1.203222
 C        -1.945689         0.372444         0.049613
 C        -1.696441        -0.785734        -0.968591
 C        -0.681623        -1.218836         0.194611
 O        -0.088496        -2.369918         0.430826
 C         0.239287        -0.058215         0.108164
 O         1.468696        -0.052505         0.166317
 C        -0.633433         1.177326        -0.100167
 H        -3.139477        -1.921206         0.526329
 H        -2.852204        -2.103211         2.226015
 H        -3.798423        -0.790376         1.687111
 H        -1.275577        -0.112039         2.092495
 H        -2.942262         0.838342        -0.019453
 H        -2.574097        -1.415449        -1.194571
 H        -1.267351        -0.481922        -1.916403
 H         0.815419        -2.278907         0.183279
 H        -0.423407         1.830149         0.753472
 H        -0.635211         1.776380        -0.953718
