19
Iteration:  4828charge 0 multiplicity 1
 C        -2.817376        -1.393322         1.665644
 C        -1.722444        -0.489000         1.115874
 C        -2.013700         0.334531        -0.261397
 C        -1.649634        -0.850749        -1.008592
 C        -0.701895        -1.196023         0.228135
 O        -0.035698        -2.454459         0.402315
 C         0.261264        -0.004651         0.157490
 O         1.423917        -0.095438         0.472772
 C        -0.729721         1.255430        -0.247709
 H        -3.499959        -1.909480         0.897739
 H        -2.366355        -2.205251         2.239416
 H        -3.587125        -0.942355         2.306951
 H        -1.459566         0.136050         1.925054
 H        -2.890483         0.893643        -0.452603
 H        -2.470491        -1.668730        -1.282758
 H        -1.221798        -0.695898        -2.005168
 H         0.877632        -2.358626         0.616227
 H        -0.805833         2.194545         0.386935
 H        -0.439281         1.590074        -1.280913
