19
Iteration:   179charge 0 multiplicity 1
 C        -2.898731        -1.499738         1.570993
 C        -1.821686        -0.607042         1.120561
 C        -1.956742         0.361233        -0.027213
 C        -1.630332        -0.773917        -1.031368
 C        -0.643336        -1.159369         0.210898
 O        -0.247347        -2.443724         0.477226
 C         0.331351         0.014942         0.110974
 O         1.574338         0.004299         0.253585
 C        -0.670640         1.210230        -0.094227
 H        -3.190390        -2.202136         0.770400
 H        -2.512048        -2.224072         2.345773
 H        -3.750033        -0.894534         1.970604
 H        -1.287654        -0.141569         1.982736
 H        -2.914302         0.899310        -0.315321
 H        -2.539289        -1.543953        -1.109903
 H        -1.232647        -0.418712        -2.043230
 H         0.581611        -2.670884         0.096957
 H        -0.480718         2.096327         0.530093
 H        -0.559577         1.689906        -1.103433
