19
Iteration:  4079charge 0 multiplicity 1
 C        -2.982565        -1.473897         1.552370
 C        -1.795310        -0.605791         1.195873
 C        -1.958410         0.374701        -0.203655
 C        -1.607478        -0.826506        -0.981295
 C        -0.697435        -1.208832         0.281679
 O        -0.145487        -2.523027         0.490795
 C         0.317537         0.053891         0.181610
 O         1.519949         0.082211         0.286451
 C        -0.638936         1.232219        -0.214047
 H        -3.135247        -2.263105         0.698929
 H        -2.841243        -2.061457         2.462805
 H        -3.823486        -0.736380         1.782761
 H        -1.483733         0.059487         2.022216
 H        -2.933776         0.719995        -0.341485
 H        -2.387172        -1.579174        -1.093316
 H        -1.137485        -0.625048        -1.917090
 H         0.744425        -2.613909         0.128810
 H        -0.431617         2.049726         0.525462
 H        -0.345549         1.668255        -1.308521
