19
Iteration:   392
 C        -2.755357        -1.528064         1.518923
 C        -1.736387        -0.435562         1.152835
 C        -2.011799         0.460616        -0.101124
 C        -1.678430        -0.819091        -0.972476
 C        -0.669826        -1.203424         0.136788
 O        -0.215413        -2.492129         0.434248
 C         0.231164        -0.006025         0.207906
 O         1.421357         0.010776         0.424261
 C        -0.556447         1.204212        -0.237925
 H        -3.195000        -2.105622         0.650741
 H        -2.421949        -2.412612         2.096065
 H        -3.621822        -1.185262         2.071286
 H        -1.260826         0.023533         2.022107
 H        -3.012163         0.872951        -0.242953
 H        -2.544148        -1.499662        -0.953194
 H        -1.284213        -0.759197        -2.017103
 H         0.759625        -2.714956         0.155542
 H        -0.461744         2.054600         0.428362
 H        -0.268289         1.476189        -1.257951
