19
Iteration:   707charge 0 multiplicity 1
 C        -2.775641        -1.512083         1.697129
 C        -1.765185        -0.524525         1.042800
 C        -1.970925         0.372814        -0.141273
 C        -1.601436        -0.752898        -1.114313
 C        -0.689705        -1.230646         0.121290
 O        -0.243061        -2.429902         0.534851
 C         0.254113         0.052121         0.113706
 O         1.449674        -0.067469         0.327937
 C        -0.649853         1.205431        -0.116558
 H        -3.328367        -2.288147         1.008843
 H        -2.072059        -2.138492         2.311677
 H        -3.631993        -1.019006         2.256948
 H        -1.213915        -0.054692         1.914035
 H        -2.927625         0.952109        -0.215808
 H        -2.384185        -1.465878        -1.557091
 H        -1.167739        -0.402939        -2.061509
 H         0.724226        -2.470255         0.331089
 H        -0.689516         1.651152         0.976293
 H        -0.373187         1.984500        -0.862308
