19
Iteration:  2041charge 0 multiplicity 1
 C        -2.770970        -1.463372         1.761018
 C        -1.779998        -0.558804         1.157188
 C        -2.036390         0.408189        -0.208037
 C        -1.541386        -0.802732        -1.096823
 C        -0.721066        -1.168018         0.187331
 O        -0.231461        -2.438224         0.313851
 C         0.293275        -0.009214         0.171989
 O         1.495015        -0.070409         0.366306
 C        -0.726828         1.228615        -0.116694
 H        -3.134901        -2.252053         1.073623
 H        -2.303806        -2.032571         2.636850
 H        -3.615065        -0.913707         2.101755
 H        -1.287820        -0.068692         2.030934
 H        -2.957522         0.981662        -0.345944
 H        -2.298998        -1.580540        -1.278632
 H        -1.079447        -0.542145        -2.045113
 H         0.668095        -2.464597        -0.097565
 H        -0.692935         1.774176         0.881541
 H        -0.256149         1.734266        -0.973339
