19
Iteration:  2388
 C        -2.889366        -1.506924         1.642375
 C        -1.800975        -0.515218         1.164303
 C        -1.989985         0.402191        -0.117532
 C        -1.584839        -0.757587        -0.974285
 C        -0.709131        -1.143116         0.224697
 O        -0.115930        -2.371441         0.297995
 C         0.255060        -0.063869         0.210541
 O         1.459889        -0.175278         0.282494
 C        -0.668564         1.260509        -0.173112
 H        -3.971713        -1.574758         1.188968
 H        -2.468140        -2.437538         1.445368
 H        -3.015944        -1.513029         2.714091
 H        -1.485218         0.099680         2.046067
 H        -2.951598         0.977386        -0.131614
 H        -2.217399        -1.670456        -1.068015
 H        -0.961953        -0.601321        -1.871000
 H         0.914804        -2.164828         0.410707
 H        -0.543323         2.130102         0.523806
 H        -0.289857         1.502698        -1.134248
