19
Iteration:  2727
 C        -3.143605        -1.413262         1.478349
 C        -1.896572        -0.587717         1.147089
 C        -1.997140         0.280921        -0.129414
 C        -1.425625        -0.901812        -1.039415
 C        -0.652973        -1.157126         0.371379
 O        -0.085221        -2.451931         0.679282
 C         0.354674         0.038439         0.119687
 O         1.566943         0.070595         0.020566
 C        -0.691685         1.181017        -0.065774
 H        -3.980903        -1.228721         0.685102
 H        -2.845407        -2.388328         1.258931
 H        -3.563854        -1.352422         2.468447
 H        -1.627705         0.001816         2.092980
 H        -2.866851         0.864714        -0.370663
 H        -2.097476        -1.727437        -1.021899
 H        -1.266291        -0.680509        -2.055155
 H         0.814372        -2.300777         0.757679
 H        -0.570527         2.094597         0.573436
 H        -0.396427         1.646383        -1.026331
