19
Iteration:   763
 C        -3.034844        -1.483180         1.434491
 C        -1.798473        -0.545993         1.262891
 C        -1.976482         0.391575         0.004927
 C        -1.559105        -0.822069        -0.893686
 C        -0.706038        -1.179719         0.289370
 O        -0.052946        -2.406870         0.406582
 C         0.306371         0.011609         0.077564
 O         1.519961        -0.049069         0.139637
 C        -0.686967         1.167308        -0.126703
 H        -3.421443        -2.055496         0.540643
 H        -3.110090        -2.317244         2.221545
 H        -3.859566        -0.793857         1.739232
 H        -1.280489        -0.087357         2.110500
 H        -2.868787         1.001951        -0.179894
 H        -2.371584        -1.593171        -0.947792
 H        -1.185381        -0.597539        -1.896553
 H         0.791239        -2.410512         0.830083
 H        -0.337620         2.077149         0.484314
 H        -0.492785         1.709050        -1.090345
