19
Iteration:  2007charge 0 multiplicity 1
 C        -2.810659        -1.547612         1.515004
 C        -1.749119        -0.540511         1.197926
 C        -2.025035         0.505715        -0.126810
 C        -1.788067        -0.795144        -0.998070
 C        -0.677169        -1.166184         0.211176
 O        -0.116867        -2.421136         0.440605
 C         0.294117        -0.035311         0.127813
 O         1.502073        -0.118805         0.312670
 C        -0.650863         1.258009        -0.167111
 H        -2.821736        -2.404002         0.759983
 H        -2.554121        -1.946590         2.459030
 H        -3.797118        -1.128095         1.620714
 H        -1.316145        -0.274871         2.148584
 H        -2.998639         1.028406        -0.064197
 H        -2.637781        -1.489430        -0.993632
 H        -1.390216        -0.679917        -1.999193
 H         0.817367        -2.354229         0.373121
 H        -0.500420         2.059091         0.660308
 H        -0.219936         1.794507        -0.996774
