19
Iteration:  1906
 C        -3.081778        -1.436925         1.600585
 C        -1.795076        -0.649215         1.113372
 C        -1.976872         0.339653        -0.144262
 C        -1.562467        -0.705227        -1.116221
 C        -0.664129        -1.188267         0.203131
 O        -0.052301        -2.379730         0.583109
 C         0.269268        -0.012995         0.123519
 O         1.483552        -0.100112         0.089345
 C        -0.663796         1.207446         0.013357
 H        -3.732286        -2.133705         1.029719
 H        -2.592910        -2.187092         2.175656
 H        -3.557165        -0.845704         2.417107
 H        -1.295201        -0.108932         2.018168
 H        -2.930824         0.834212        -0.520982
 H        -2.357604        -1.431404        -1.215393
 H        -0.924405        -0.461192        -1.990311
 H         0.879923        -2.214423         0.569718
 H        -0.513725         1.695165         1.075459
 H        -0.314483         1.987441        -0.708112
