19
Iteration:  1009charge 0 multiplicity 1
 C        -2.957253        -1.487952         1.522446
 C        -1.713338        -0.564535         1.236571
 C        -2.000562         0.334022         0.001201
 C        -1.638337        -0.742795        -0.990348
 C        -0.631554        -1.174494         0.214295
 O        -0.218919        -2.508062         0.442267
 C         0.335374        -0.004872         0.059319
 O         1.551322         0.042372         0.260513
 C        -0.666135         1.239326        -0.171840
 H        -3.223083        -1.985587         0.636367
 H        -2.734832        -2.268839         2.254031
 H        -3.943315        -1.201940         1.623891
 H        -1.397191        -0.041127         2.132474
 H        -2.970976         0.825071        -0.226669
 H        -2.368360        -1.602475        -0.983859
 H        -1.329492        -0.458486        -1.979188
 H         0.753668        -2.334250         0.741071
 H        -0.423433         2.021769         0.505243
 H        -0.552145         1.428546        -1.265120
