19
Iteration:  4939charge 0 multiplicity 1
 C        -2.958516        -1.527403         1.524700
 C        -1.909597        -0.594861         1.122181
 C        -2.018361         0.361458        -0.143397
 C        -1.566878        -0.844788        -1.001164
 C        -0.623912        -1.131453         0.239474
 O        -0.083049        -2.365755         0.640628
 C         0.280272         0.052508         0.178059
 O         1.476107        -0.108471         0.117468
 C        -0.622090         1.226070        -0.114125
 H        -3.206664        -2.349121         0.711799
 H        -2.472559        -2.091269         2.303062
 H        -3.754732        -0.954364         1.927110
 H        -1.542246         0.039287         1.963535
 H        -2.797168         0.962066        -0.472017
 H        -2.551113        -1.344894        -1.109178
 H        -1.176120        -0.487247        -2.002871
 H         0.872317        -2.209452         0.593730
 H        -0.423883         2.008811         0.584692
 H        -0.344805         1.625605        -1.154214
