19
Iteration:  1548charge 0 multiplicity 1
 C        -2.862390        -1.488715         1.707263
 C        -1.846943        -0.486000         1.051015
 C        -2.023162         0.377312        -0.295028
 C        -1.625189        -0.866919        -1.064569
 C        -0.594931        -1.191907         0.186831
 O        -0.223231        -2.494483         0.389264
 C         0.294477         0.006874         0.164505
 O         1.497541         0.028137         0.269266
 C        -0.621227         1.209944         0.054457
 H        -3.353681        -2.310262         1.043974
 H        -2.111103        -1.918654         2.265587
 H        -3.581767        -0.965071         2.180770
 H        -1.442125         0.190792         1.843893
 H        -2.813776         1.073375        -0.557150
 H        -2.420377        -1.572947        -1.293610
 H        -1.071089        -0.814184        -1.980320
 H         0.514758        -2.590840         0.924034
 H        -0.709307         1.763256         1.069685
 H        -0.188461         1.991758        -0.555834
