19
Iteration:   946
 C        -2.999495        -1.321269         1.773476
 C        -1.843768        -0.530115         1.134946
 C        -2.047499         0.350749        -0.149440
 C        -1.576620        -0.838983        -1.031514
 C        -0.694231        -1.237564         0.099944
 O         0.055524        -2.344501         0.240182
 C         0.274794        -0.053324         0.094214
 O         1.472135        -0.131946         0.419765
 C        -0.703983         1.165523        -0.085702
 H        -3.578519        -2.077740         1.087069
 H        -2.428161        -1.960941         2.427188
 H        -3.526969        -0.543679         2.398680
 H        -1.294988         0.094082         1.888588
 H        -3.016884         0.789820        -0.312256
 H        -2.319501        -1.697364        -1.274920
 H        -1.198616        -0.678803        -2.091665
 H         0.965435        -2.118837         0.670392
 H        -0.522594         1.847068         0.793833
 H        -0.566510         1.658677        -1.043121
