19
Iteration:  4316charge 0 multiplicity 1
 C        -2.833592        -1.434776         1.651205
 C        -1.721696        -0.491637         1.127552
 C        -2.001133         0.370751        -0.155258
 C        -1.581815        -0.940228        -1.007671
 C        -0.658101        -1.143618         0.182395
 O        -0.206019        -2.391283         0.358274
 C         0.237991        -0.047716         0.184002
 O         1.417299         0.034809         0.517087
 C        -0.634333         1.153075        -0.325359
 H        -2.948502        -2.240421         0.880732
 H        -2.610035        -2.107617         2.417292
 H        -3.755314        -0.965074         1.678592
 H        -1.435821         0.064909         2.000758
 H        -2.869698         1.005986        -0.310338
 H        -2.313488        -1.795691        -0.928464
 H        -1.156713        -0.796166        -2.017855
 H         0.802201        -2.449685         0.457047
 H        -0.510367         1.951624         0.434067
 H        -0.411634         1.564238        -1.353732
