19
Iteration:  4922
 C        -2.973221        -1.502370         1.539369
 C        -1.819852        -0.472964         1.159599
 C        -1.956935         0.397634        -0.093388
 C        -1.566172        -0.845646        -1.015145
 C        -0.704958        -1.187742         0.294327
 O        -0.082844        -2.407871         0.541595
 C         0.308020         0.007455         0.106590
 O         1.512275        -0.069099         0.197274
 C        -0.705783         1.200356        -0.170038
 H        -3.246325        -2.174271         0.774490
 H        -2.688072        -2.161853         2.414607
 H        -4.015655        -1.100437         1.724250
 H        -1.527323         0.000381         2.083113
 H        -3.021417         0.860199        -0.190929
 H        -2.142156        -1.688653        -1.253218
 H        -0.945246        -0.744914        -1.951645
 H         0.913268        -2.216219         0.539588
 H        -0.721936         2.118806         0.481467
 H        -0.581637         1.692255        -1.156618
