19
Iteration:   331charge 0 multiplicity 1
 C        -2.836116        -1.439925         1.649129
 C        -1.823557        -0.500116         1.067422
 C        -1.922687         0.386038        -0.180564
 C        -1.656990        -0.882690        -1.061191
 C        -0.700982        -1.187796         0.152425
 O        -0.097576        -2.509917         0.352869
 C         0.237363        -0.038726         0.149304
 O         1.454102         0.007438         0.350667
 C        -0.642070         1.199976        -0.000080
 H        -3.343161        -2.040033         0.912342
 H        -2.407674        -1.835015         2.572773
 H        -3.562687        -0.687201         1.940932
 H        -1.361553         0.065228         1.924679
 H        -2.888792         0.963525        -0.378821
 H        -2.719912        -1.291433        -1.238955
 H        -1.077946        -0.792696        -1.973145
 H         0.756964        -2.327936         0.781241
 H        -0.692289         1.786166         0.905937
 H        -0.402330         1.864106        -0.886349
