19
Iteration:  2410
 C        -2.970932        -1.500777         1.628835
 C        -1.808130        -0.574373         1.168693
 C        -1.987872         0.367687        -0.104578
 C        -1.589893        -0.776147        -1.047552
 C        -0.705619        -1.127625         0.187151
 O        -0.033564        -2.366606         0.425325
 C         0.288134         0.024403         0.116196
 O         1.480195        -0.191729         0.210833
 C        -0.680665         1.212348        -0.046468
 H        -3.942218        -0.868159         1.327814
 H        -2.963149        -2.482139         1.285976
 H        -2.987710        -1.480842         2.709588
 H        -1.553488         0.065396         2.047734
 H        -2.970466         0.886561        -0.254206
 H        -2.423061        -1.496495        -1.236763
 H        -0.980239        -0.598720        -1.962814
 H         0.905938        -2.105719         0.322265
 H        -0.414054         1.852108         0.852841
 H        -0.491178         1.761731        -0.961710
