19
Iteration:  2295charge 0 multiplicity 1
 C        -2.917091        -1.450039         1.756627
 C        -1.836890        -0.509812         1.201896
 C        -1.946719         0.448367        -0.154442
 C        -1.662205        -0.836039        -1.000931
 C        -0.703815        -1.125644         0.175940
 O        -0.092784        -2.383992         0.156801
 C         0.281366        -0.021742         0.155662
 O         1.475741        -0.124091         0.314942
 C        -0.606994         1.117057        -0.047794
 H        -3.116619        -2.382245         1.314448
 H        -2.600868        -1.854911         2.855431
 H        -3.982087        -1.079420         1.892114
 H        -1.510481         0.029055         2.062665
 H        -2.875771         0.996122        -0.342607
 H        -2.202394        -1.776658        -1.115693
 H        -1.098305        -0.629675        -1.952133
 H         0.895138        -2.108013         0.330657
 H        -0.613238         1.986259         0.616024
 H        -0.450585         1.595670        -1.121028
