19
Iteration:  1231charge 0 multiplicity 1
 C        -2.790481        -1.503515         1.537971
 C        -1.817807        -0.468341         1.168338
 C        -1.950595         0.443000        -0.085096
 C        -1.740423        -0.845426        -0.960120
 C        -0.660647        -1.165559         0.174308
 O        -0.148221        -2.492205         0.304964
 C         0.279464         0.065182         0.125873
 O         1.446952        -0.055658         0.464040
 C        -0.617665         1.191230        -0.237134
 H        -3.135116        -2.319510         0.769774
 H        -2.368220        -2.226795         2.303230
 H        -3.447710        -0.932025         2.186164
 H        -1.485439        -0.092107         2.106795
 H        -2.843398         1.058353        -0.308338
 H        -2.539041        -1.591155        -0.980158
 H        -1.269030        -0.800996        -2.048366
 H         0.764698        -2.318297         0.785900
 H        -0.645495         1.985939         0.573301
 H        -0.371916         1.519078        -1.243585
