19
Iteration:  2584charge 0 multiplicity 1
 C        -3.027082        -1.383938         1.649706
 C        -1.753904        -0.524816         1.118952
 C        -1.926269         0.319911        -0.153385
 C        -1.581142        -0.902148        -0.998206
 C        -0.609935        -1.218662         0.212744
 O        -0.112715        -2.466382         0.306644
 C         0.291561        -0.010324         0.143158
 O         1.477312         0.084206         0.414811
 C        -0.703115         1.162207        -0.199361
 H        -2.933678        -2.528046         1.934230
 H        -3.235676        -1.024880         2.585956
 H        -3.947558        -1.386451         1.123748
 H        -1.499177         0.136443         2.031715
 H        -2.881521         0.909155        -0.267459
 H        -2.359954        -1.680963        -1.034166
 H        -1.362000        -0.569875        -1.999992
 H         0.839725        -2.572739         0.742944
 H        -0.429995         2.091417         0.384156
 H        -0.436568         1.547499        -1.191113
