19
Iteration:  3131charge 0 multiplicity 1
 C        -2.788264        -1.408977         1.585167
 C        -1.691088        -0.508312         1.106164
 C        -2.031951         0.353960        -0.159541
 C        -1.607437        -0.900176        -1.002846
 C        -0.659133        -1.205670         0.232544
 O        -0.212938        -2.527452         0.421173
 C         0.282203         0.007037         0.071632
 O         1.433981         0.133077         0.523984
 C        -0.691401         1.126321        -0.322901
 H        -3.437798        -1.731270         0.761352
 H        -2.369839        -2.211331         2.104560
 H        -3.435218        -0.788872         2.262393
 H        -1.134050         0.079343         1.932619
 H        -2.962062         0.900970        -0.254975
 H        -2.360361        -1.746555        -1.221641
 H        -1.138388        -0.632765        -1.965352
 H         0.519342        -2.409810         1.005411
 H        -0.469562         1.767773         0.531424
 H        -0.643251         1.626111        -1.258123
