19
Iteration:  3489
 C        -2.862594        -1.516636         1.643801
 C        -1.691854        -0.494786         1.111822
 C        -1.900710         0.370496        -0.164287
 C        -1.718955        -0.911301        -0.988007
 C        -0.660226        -1.110199         0.090822
 O        -0.143630        -2.364978         0.411814
 C         0.269590         0.069084         0.161425
 O         1.411356        -0.062567         0.564217
 C        -0.649980         1.153841        -0.376847
 H        -2.785629        -2.428362         0.898960
 H        -2.658538        -1.728538         2.717426
 H        -3.916984        -1.243592         1.681913
 H        -1.258041         0.023009         2.043577
 H        -2.771324         0.963875        -0.480965
 H        -2.633084        -1.599023        -0.940917
 H        -1.372566        -0.795059        -2.080666
 H         0.592793        -2.333054         1.069147
 H        -0.560755         2.014650         0.360859
 H        -0.478504         1.358490        -1.486487
