19
Iteration:  3142
 C        -2.769684        -1.408519         1.659225
 C        -1.611644        -0.482227         1.155490
 C        -1.992400         0.267138        -0.160439
 C        -1.584014        -0.849232        -1.067057
 C        -0.690798        -1.221365         0.123581
 O        -0.205150        -2.456777         0.435172
 C         0.284858        -0.047681         0.008003
 O         1.355639         0.093077         0.564898
 C        -0.705661         1.149592        -0.298388
 H        -3.218079        -1.865208         0.780379
 H        -2.606767        -2.200647         2.339750
 H        -3.556887        -0.762405         2.133768
 H        -1.142583         0.146775         2.007536
 H        -3.008298         0.623166        -0.260732
 H        -2.506505        -1.456651        -1.345355
 H        -0.997131        -0.583204        -1.957899
 H         0.434647        -2.442579         1.204572
 H        -0.645778         1.971773         0.421618
 H        -0.466730         1.608632        -1.227496
