19
Iteration:  3547charge 0 multiplicity 1
 C        -3.117775        -1.363915         1.599289
 C        -1.853644        -0.600767         1.075333
 C        -1.976388         0.336880        -0.163130
 C        -1.514346        -0.996963        -1.055265
 C        -0.650732        -1.166702         0.320815
 O        -0.074204        -2.387602         0.497072
 C         0.306023         0.079759         0.237778
 O         1.532036         0.004273         0.172361
 C        -0.660480         1.176395        -0.097131
 H        -3.700925        -1.825023         0.748795
 H        -2.807252        -2.253317         2.110985
 H        -3.667849        -0.666865         2.273349
 H        -1.398092         0.043943         1.855238
 H        -2.955720         0.604919        -0.552698
 H        -2.264687        -1.720653        -1.134846
 H        -0.911169        -0.996237        -1.967801
 H         0.907900        -2.165361         0.377259
 H        -0.472856         1.936903         0.763861
 H        -0.579451         1.713933        -1.055258
