19
Iteration:   210
 C        -2.791347        -1.599373         1.635193
 C        -1.959851        -0.522334         1.087005
 C        -1.984587         0.430455        -0.183500
 C        -1.491608        -0.761950        -1.032059
 C        -0.759118        -1.173081         0.246994
 O        -0.228935        -2.398361         0.521790
 C         0.262075         0.014450         0.186362
 O         1.449018        -0.110911         0.100184
 C        -0.578179         1.258831         0.012740
 H        -3.471545        -2.008727         0.867479
 H        -2.016603        -2.357910         1.963712
 H        -3.335669        -1.264312         2.494846
 H        -1.370068        -0.006695         1.884363
 H        -2.900327         0.926551        -0.581939
 H        -2.216513        -1.605701        -1.457059
 H        -0.855217        -0.420644        -1.907926
 H         0.802911        -2.489629         0.413465
 H        -0.508243         1.806323         0.911874
 H        -0.167842         1.919693        -0.834207
