19
Iteration:  4476
 C        -2.900618        -1.489941         1.588548
 C        -1.834727        -0.517951         1.137211
 C        -1.913430         0.343704        -0.203481
 C        -1.542035        -0.918067        -1.072131
 C        -0.663989        -1.134136         0.213419
 O        -0.218669        -2.413527         0.591535
 C         0.273041         0.015712         0.142721
 O         1.466684         0.014099         0.177917
 C        -0.658654         1.187455        -0.053970
 H        -3.175941        -2.101464         0.879665
 H        -2.653144        -2.210233         2.366661
 H        -3.674003        -0.851091         2.009481
 H        -1.336273         0.094598         1.968510
 H        -2.804083         0.977853        -0.495049
 H        -2.321634        -1.708680        -1.189280
 H        -1.041316        -0.664371        -2.049428
 H         0.672702        -2.364745         0.329504
 H        -0.469230         1.793261         0.871544
 H        -0.420782         1.699470        -0.889770
