19
Iteration:  4914charge 0 multiplicity 1
 C        -2.953572        -1.463117         1.535658
 C        -1.789726        -0.568313         1.208446
 C        -2.040669         0.391983        -0.145518
 C        -1.531774        -0.868454        -0.948088
 C        -0.662862        -1.148969         0.301583
 O        -0.107789        -2.395892         0.483196
 C         0.274081        -0.038295         0.135038
 O         1.499614        -0.029458         0.227460
 C        -0.704914         1.169518        -0.230668
 H        -3.036390        -2.084605         0.645459
 H        -2.809782        -2.142039         2.359387
 H        -3.804645        -0.772973         1.655234
 H        -1.325863         0.135046         1.983547
 H        -2.921161         0.976655        -0.397656
 H        -2.446663        -1.602085        -1.096653
 H        -0.949452        -0.672835        -1.768389
 H         0.894530        -2.144293         0.531020
 H        -0.535772         1.801735         0.673517
 H        -0.557166         1.729464        -1.091215
