19
Iteration:  4315
 C        -2.829036        -1.436508         1.650596
 C        -1.718002        -0.494470         1.128820
 C        -1.994547         0.376440        -0.156467
 C        -1.587315        -0.944290        -1.015224
 C        -0.665718        -1.150890         0.173127
 O        -0.207075        -2.385795         0.361595
 C         0.238831        -0.043950         0.179988
 O         1.417792         0.032371         0.524687
 C        -0.640017         1.156403        -0.334300
 H        -2.915183        -2.219508         0.897111
 H        -2.626848        -2.137929         2.436798
 H        -3.774095        -0.971221         1.690678
 H        -1.434357         0.046547         1.977814
 H        -2.871436         1.051049        -0.275157
 H        -2.259656        -1.794999        -0.919225
 H        -1.181076        -0.815864        -1.975525
 H         0.810199        -2.470829         0.483905
 H        -0.497041         1.971147         0.458767
 H        -0.413716         1.562408        -1.329035
