19
Iteration:   421charge 0 multiplicity 1
 C        -3.005124        -1.384188         1.570408
 C        -1.724282        -0.586869         1.105471
 C        -2.035324         0.353483        -0.051185
 C        -1.693503        -0.849367        -1.040250
 C        -0.659234        -1.250758         0.115459
 O        -0.135090        -2.426393         0.445190
 C         0.363222         0.013230         0.088387
 O         1.557696         0.072337         0.404763
 C        -0.613561         1.147078        -0.162111
 H        -3.618881        -1.714555         0.726492
 H        -2.747562        -2.200157         2.225051
 H        -3.771734        -0.827287         2.209554
 H        -1.191664        -0.281747         2.064693
 H        -3.026191         0.741211        -0.037153
 H        -2.498814        -1.518607        -0.979811
 H        -1.302071        -0.794232        -2.155679
 H         0.803783        -2.575095         0.168184
 H        -0.607238         1.800792         0.777867
 H        -0.516636         1.840348        -0.972097
