19
Iteration:  4509
 C        -2.945234        -1.395790         1.651503
 C        -1.848167        -0.508642         1.118461
 C        -2.017362         0.361337        -0.105464
 C        -1.580100        -0.905984        -1.044354
 C        -0.670526        -1.185456         0.170739
 O        -0.044431        -2.467387         0.404729
 C         0.289792         0.022941         0.189622
 O         1.499225        -0.045007         0.361741
 C        -0.705435         1.197758        -0.193041
 H        -3.363965        -2.048801         1.054394
 H        -2.571507        -1.823143         2.584123
 H        -3.800435        -0.765415         1.871044
 H        -1.548306         0.206627         1.977967
 H        -2.905026         0.962736        -0.429523
 H        -2.314180        -1.781878        -1.126013
 H        -1.258946        -0.546055        -2.064648
 H         0.981195        -2.457491         0.370767
 H        -0.391589         2.126681         0.357175
 H        -0.513647         1.400158        -1.164951
