19
Iteration:  4246charge 0 multiplicity 1
 C        -2.875931        -1.427624         1.692250
 C        -1.819648        -0.505290         1.084132
 C        -1.966402         0.331150        -0.265223
 C        -1.568690        -0.898149        -1.005232
 C        -0.645995        -1.124150         0.221504
 O        -0.114043        -2.426082         0.362642
 C         0.259493         0.028917         0.183644
 O         1.433252        -0.067379         0.512746
 C        -0.683156         1.211121        -0.290103
 H        -3.404396        -1.987006         0.963806
 H        -2.446446        -2.349950         2.188259
 H        -3.609261        -0.734984         2.194409
 H        -1.389280         0.011302         1.951117
 H        -3.034887         0.703664        -0.318180
 H        -2.244891        -1.687607        -0.911597
 H        -1.183846        -0.827605        -1.948437
 H         0.788786        -2.183478         0.292384
 H        -0.624870         2.035832         0.538234
 H        -0.490724         1.637486        -1.264588
