19
Iteration:  4937charge 0 multiplicity 1
 C        -2.973639        -1.530217         1.514211
 C        -1.914836        -0.584945         1.135133
 C        -2.012968         0.351134        -0.132853
 C        -1.555095        -0.850948        -1.021014
 C        -0.624315        -1.133528         0.239165
 O        -0.079092        -2.378826         0.633351
 C         0.280436         0.059023         0.166318
 O         1.482705        -0.108959         0.126153
 C        -0.628786         1.244790        -0.124546
 H        -3.144049        -2.320959         0.753168
 H        -2.457326        -2.023783         2.299480
 H        -3.742078        -0.942901         1.970554
 H        -1.521199         0.069717         1.988656
 H        -2.791798         0.983392        -0.420779
 H        -2.605043        -1.371238        -1.106467
 H        -1.190926        -0.478474        -1.884751
 H         0.841689        -2.217536         0.588363
 H        -0.450943         2.029657         0.590232
 H        -0.382248         1.522565        -1.105852
