19
Iteration:   921
 C        -2.921665        -1.418052         1.722112
 C        -1.711865        -0.557614         1.165441
 C        -1.933812         0.375161        -0.161770
 C        -1.653258        -0.850282        -1.036961
 C        -0.692818        -1.224963         0.114028
 O        -0.057670        -2.403227         0.302111
 C         0.235855         0.019556         0.215275
 O         1.415024        -0.084848         0.413838
 C        -0.687400         1.216658        -0.181136
 H        -3.540360        -1.911042         0.921049
 H        -2.498675        -2.195297         2.441147
 H        -3.477025        -0.605646         2.212603
 H        -1.229650         0.132528         1.900689
 H        -2.880871         1.010433        -0.175186
 H        -2.316016        -1.718418        -1.305111
 H        -1.232721        -0.691221        -2.052900
 H         0.873666        -2.309591         0.342940
 H        -0.803314         1.950350         0.612354
 H        -0.370169         1.531545        -1.255445
