19
Iteration:    11
 C        -2.856513        -1.488486         1.522252
 C        -1.847474        -0.510428         1.230820
 C        -2.039781         0.479432         0.008924
 C        -1.644736        -0.733007        -0.955513
 C        -0.719627        -1.139900         0.284678
 O        -0.129537        -2.532850         0.299794
 C         0.304135        -0.007845         0.113907
 O         1.544586        -0.066547         0.252017
 C        -0.635576         1.154821        -0.164344
 H        -2.359480        -2.344253         2.045758
 H        -3.615956        -1.156349         2.215680
 H        -3.322976        -1.927357         0.608654
 H        -1.462901        -0.072047         2.180597
 H        -2.972156         1.089047        -0.133924
 H        -2.357889        -1.597973        -0.966880
 H        -1.191922        -0.577799        -1.961948
 H         0.776878        -2.302002         0.278844
 H        -0.564654         1.937195         0.706397
 H        -0.430815         1.599044        -1.153332
