19
Iteration:   615
 C        -3.009824        -1.271715         1.676741
 C        -1.711656        -0.672254         1.077854
 C        -2.064653         0.348698        -0.047380
 C        -1.685881        -0.887388        -1.068191
 C        -0.677559        -1.188819         0.185646
 O         0.027447        -2.397480         0.341173
 C         0.307262        -0.007623         0.108686
 O         1.493130        -0.055305         0.375377
 C        -0.696915         1.144666        -0.095706
 H        -3.664507        -1.475687         0.875052
 H        -2.904955        -2.193596         2.289940
 H        -3.564968        -0.522080         2.236137
 H        -1.148936        -0.177901         1.842833
 H        -3.002036         0.874586         0.007501
 H        -2.495402        -1.451140        -1.418871
 H        -1.136853        -0.545362        -1.956436
 H         0.967200        -2.211870         0.277461
 H        -0.518901         1.964233         0.581931
 H        -0.520126         1.503089        -1.110817
