19
Iteration:  1048charge 0 multiplicity 1
 C        -2.855628        -1.623828         1.523203
 C        -1.851802        -0.472030         1.139183
 C        -1.972029         0.391206        -0.161683
 C        -1.562905        -0.818080        -0.981927
 C        -0.688325        -1.135446         0.241100
 O        -0.224854        -2.362257         0.501445
 C         0.272872        -0.029483         0.101600
 O         1.503368        -0.089609         0.120503
 C        -0.616297         1.235990         0.037921
 H        -3.047533        -2.056481         0.481169
 H        -2.352465        -2.340024         2.242049
 H        -3.746763        -1.130886         2.079957
 H        -1.409992         0.148196         1.964833
 H        -2.965566         0.880050        -0.225548
 H        -2.274955        -1.611753        -0.926516
 H        -1.172790        -0.633313        -2.024094
 H         0.712617        -2.377788         0.706022
 H        -0.712832         1.970160         0.889371
 H        -0.335958         1.915310        -0.796639
