19
Iteration:  3020
 C        -3.122569        -1.560137         1.392065
 C        -1.980365        -0.473864         1.237425
 C        -1.971926         0.383214        -0.260681
 C        -1.513146        -0.941321        -0.848676
 C        -0.646567        -1.096140         0.400418
 O        -0.070111        -2.385100         0.710442
 C         0.385809         0.006860         0.080459
 O         1.606012         0.021276        -0.043911
 C        -0.679384         1.162962        -0.072731
 H        -4.095923        -1.236760         0.911080
 H        -2.896490        -2.404348         0.875600
 H        -3.231536        -1.786921         2.404910
 H        -1.713355         0.043153         2.201092
 H        -2.867042         0.950980        -0.563484
 H        -2.338503        -1.684095        -0.846788
 H        -0.925853        -0.921974        -1.787677
 H         0.796681        -2.371801         0.361909
 H        -0.753313         1.861008         0.713347
 H        -0.339394         1.712174        -0.931220
