19
Iteration:  3689
 C        -3.005621        -1.344998         1.603380
 C        -1.821589        -0.500817         1.141387
 C        -2.034093         0.310232        -0.153524
 C        -1.628141        -0.884442        -0.985694
 C        -0.611171        -1.182831         0.197455
 O        -0.096132        -2.478072         0.364757
 C         0.356157        -0.007694         0.102666
 O         1.534197         0.054853         0.376470
 C        -0.690676         1.128731        -0.184186
 H        -3.174137        -2.218364         0.954046
 H        -2.746528        -1.929059         2.479303
 H        -3.782129        -0.587964         1.728335
 H        -1.446738         0.126394         2.026902
 H        -2.957930         0.832124        -0.409545
 H        -2.215415        -1.791331        -0.845285
 H        -1.152929        -0.935194        -1.994205
 H         0.711754        -2.319551         0.902547
 H        -0.676760         1.732919         0.806262
 H        -0.479324         1.758028        -1.031083
