19
Iteration:  3728
 C        -2.923468        -1.336426         1.606919
 C        -1.691928        -0.550343         1.166230
 C        -2.005295         0.389601        -0.184629
 C        -1.649143        -0.909335        -0.962069
 C        -0.701107        -1.198436         0.234275
 O         0.010068        -2.437539         0.293145
 C         0.239297        -0.002012         0.193530
 O         1.392969        -0.036702         0.566968
 C        -0.661184         1.159062        -0.397557
 H        -3.338164        -2.136545         0.919211
 H        -2.782884        -1.832208         2.648071
 H        -3.765738        -0.668824         1.924235
 H        -1.201399        -0.064822         2.070208
 H        -2.941966         0.980272        -0.199600
 H        -2.398860        -1.679815        -0.856161
 H        -1.325479        -0.654738        -2.044847
 H         1.031238        -2.385291         0.314320
 H        -0.508451         2.022758         0.219106
 H        -0.636510         1.492785        -1.492404
