19
Iteration:  4862charge 0 multiplicity 1
 C        -2.999612        -1.349435         1.692246
 C        -1.775687        -0.568157         1.144732
 C        -1.968002         0.274536        -0.201142
 C        -1.651301        -0.878086        -1.030729
 C        -0.641455        -1.171327         0.197439
 O        -0.038352        -2.460606         0.365834
 C         0.289225        -0.012776         0.085752
 O         1.442014         0.038640         0.430453
 C        -0.655727         1.158945        -0.186292
 H        -3.545245        -2.050837         0.924778
 H        -2.567523        -1.927646         2.477615
 H        -3.592040        -0.596686         2.190774
 H        -1.355402         0.078503         1.890199
 H        -2.823563         0.839831        -0.360255
 H        -2.464119        -1.709831        -1.142232
 H        -1.185989        -0.577302        -2.022875
 H         0.867068        -2.184725         0.619514
 H        -0.710691         1.909009         0.608102
 H        -0.384692         1.636147        -1.210225
