19
Iteration:   511charge 0 multiplicity 1
 C        -2.964781        -1.525508         1.393828
 C        -1.693523        -0.610820         1.178006
 C        -2.038102         0.369558        -0.008658
 C        -1.690390        -0.768158        -1.025105
 C        -0.638486        -1.133663         0.214346
 O        -0.156544        -2.416038         0.670715
 C         0.283028         0.017234         0.067372
 O         1.494684        -0.046247         0.122505
 C        -0.580519         1.208069        -0.058371
 H        -3.093181        -2.341756         0.613310
 H        -2.862246        -2.053445         2.350706
 H        -3.858315        -0.840948         1.551713
 H        -1.246591        -0.095411         2.079038
 H        -2.793456         1.149815         0.006817
 H        -2.518934        -1.556878        -1.203811
 H        -1.226444        -0.483929        -2.045534
 H         0.822208        -2.481026         0.309560
 H        -0.548002         2.001023         0.732682
 H        -0.347900         1.531514        -1.078363
