19
Iteration:  3479charge 0 multiplicity 1
 C        -2.782418        -1.510457         1.619675
 C        -1.772353        -0.524913         1.149847
 C        -1.943734         0.394800        -0.223047
 C        -1.717664        -0.843310        -0.996326
 C        -0.662289        -1.148798         0.193378
 O        -0.161980        -2.398137         0.366974
 C         0.270147         0.018612         0.140796
 O         1.402275        -0.043672         0.596547
 C        -0.614620         1.172490        -0.403337
 H        -2.660438        -2.641098         1.294991
 H        -2.412751        -1.774306         2.587517
 H        -3.794480        -1.178208         1.479417
 H        -1.513795         0.199741         1.967585
 H        -2.880367         0.998090        -0.265469
 H        -2.444947        -1.583256        -0.655022
 H        -1.368511        -0.990976        -2.056837
 H         0.579399        -2.226987         0.974783
 H        -0.380477         2.185278         0.105049
 H        -0.433094         1.495288        -1.477505
