19
Iteration:   808charge 0 multiplicity 1
 C        -3.045419        -1.368938         1.559495
 C        -1.810142        -0.623833         1.084183
 C        -1.975141         0.392553        -0.090982
 C        -1.584286        -0.840548        -0.994077
 C        -0.654424        -1.197220         0.193975
 O         0.006076        -2.379777         0.520523
 C         0.286188         0.018592         0.202513
 O         1.473427        -0.104546         0.099992
 C        -0.676221         1.221420        -0.017429
 H        -3.472394        -2.069628         0.841866
 H        -2.791372        -2.286703         2.229882
 H        -3.900624        -0.760237         1.946226
 H        -1.414246        -0.204371         2.030550
 H        -2.935466         0.810920        -0.238752
 H        -2.331747        -1.607968        -1.033136
 H        -1.226865        -0.786981        -2.054648
 H         0.894837        -2.398164         0.034739
 H        -0.736984         1.868032         0.907946
 H        -0.373321         2.073899        -0.707480
