19
Iteration:   664
 C        -2.842813        -1.436278         1.554296
 C        -1.819109        -0.462271         1.241975
 C        -1.965722         0.378858        -0.068555
 C        -1.688438        -0.891210        -0.970661
 C        -0.755978        -1.079179         0.219157
 O        -0.067009        -2.477554         0.245891
 C         0.271712        -0.055839         0.130989
 O         1.464713        -0.023837         0.418930
 C        -0.598498         1.148993        -0.237327
 H        -3.572679        -1.975615         0.839691
 H        -2.376948        -2.297695         2.094767
 H        -3.560834        -0.914382         2.242670
 H        -1.471852         0.209400         2.082604
 H        -2.888906         1.009207        -0.164166
 H        -2.429723        -1.785977        -0.934084
 H        -1.360996        -0.703899        -2.004971
 H         0.817013        -2.354326         0.533425
 H        -0.424023         1.985261         0.571442
 H        -0.442899         1.725276        -1.199518
