19
Iteration:  3560charge 0 multiplicity 1
 C        -3.130702        -1.398966         1.514826
 C        -1.911225        -0.569193         1.118525
 C        -1.946767         0.279281        -0.167120
 C        -1.428399        -0.899908        -0.964884
 C        -0.636528        -1.160428         0.305603
 O        -0.046058        -2.377091         0.560873
 C         0.316884         0.025956         0.132795
 O         1.522034        -0.011627         0.099894
 C        -0.706034         1.159795        -0.109508
 H        -3.878020        -1.550220         0.824847
 H        -2.813430        -2.294591         2.047357
 H        -3.648025        -0.844980         2.322836
 H        -1.696226        -0.142649         2.050276
 H        -2.759697         0.973731        -0.251826
 H        -2.202597        -1.631172        -1.055167
 H        -1.042695        -0.663745        -1.887330
 H         0.877807        -2.301616         0.753133
 H        -0.858508         1.820971         0.754235
 H        -0.409474         1.727484        -0.959835
