19
Iteration:  2071
 C        -2.894997        -1.392912         1.733515
 C        -1.795647        -0.609116         1.169594
 C        -1.958890         0.419089        -0.076424
 C        -1.567102        -0.810590        -1.111577
 C        -0.646654        -1.244364         0.128926
 O        -0.189506        -2.530944         0.268288
 C         0.294245        -0.028169         0.106572
 O         1.491896         0.119532         0.346078
 C        -0.700250         1.155349        -0.098317
 H        -3.691066        -1.912325         1.028025
 H        -2.462039        -2.204846         2.217970
 H        -3.392898        -0.818620         2.548953
 H        -1.237088        -0.195973         1.959132
 H        -2.908508         1.023119        -0.194542
 H        -2.456173        -1.463004        -1.096094
 H        -1.291875        -0.508348        -2.144709
 H         0.416976        -2.478606         0.976158
 H        -0.490407         1.880389         0.771769
 H        -0.229576         1.503129        -0.994354
