19
Iteration:    15charge 0 multiplicity 1
 C        -2.873279        -1.562582         1.508249
 C        -1.838347        -0.426839         1.249703
 C        -2.062529         0.489177         0.006847
 C        -1.659937        -0.726259        -0.905521
 C        -0.708249        -1.140814         0.323246
 O        -0.155295        -2.569879         0.276550
 C         0.336174        -0.020516         0.132391
 O         1.559330        -0.037944         0.265656
 C        -0.648147         1.151487        -0.209409
 H        -2.212978        -2.376697         1.833826
 H        -3.649828        -1.211309         2.195382
 H        -3.331280        -1.857708         0.603469
 H        -1.517617        -0.034845         2.198340
 H        -2.891936         1.117552        -0.105458
 H        -2.298499        -1.537708        -1.068404
 H        -1.224009        -0.585375        -1.873300
 H         0.843809        -2.398100         0.216700
 H        -0.383029         1.954332         0.389710
 H        -0.486013         1.603065        -1.189915
