19
Iteration:  1939
 C        -3.040460        -1.358453         1.542002
 C        -1.802039        -0.522141         1.158652
 C        -2.015286         0.355850        -0.123290
 C        -1.499663        -0.885559        -0.979284
 C        -0.621771        -1.190838         0.276339
 O        -0.101689        -2.470601         0.398718
 C         0.280354        -0.001265         0.254836
 O         1.486824        -0.005539         0.027465
 C        -0.667300         1.192262         0.071486
 H        -3.433764        -2.035288         0.751249
 H        -2.604959        -1.889933         2.325656
 H        -3.894235        -0.761701         1.916414
 H        -1.598075        -0.068348         2.093182
 H        -2.988958         0.764613        -0.487818
 H        -2.201638        -1.719141        -1.044752
 H        -0.970688        -0.844656        -1.953082
 H         0.871733        -2.486000         0.067228
 H        -0.756975         1.876242         0.996348
 H        -0.324186         1.818164        -0.757214
