19
Iteration:  4119
 C        -2.881517        -1.593419         1.438584
 C        -1.804701        -0.516335         1.127064
 C        -2.001467         0.331247        -0.205958
 C        -1.589666        -0.823928        -1.047847
 C        -0.690330        -1.092779         0.336302
 O        -0.165903        -2.362739         0.630430
 C         0.313230         0.041218         0.152475
 O         1.506613        -0.119684         0.052412
 C        -0.631084         1.215589         0.025420
 H        -3.068220        -2.271517         0.616322
 H        -2.833974        -2.163377         2.387469
 H        -3.790246        -1.044164         1.639186
 H        -1.691480         0.072175         2.040380
 H        -2.822640         1.045795        -0.519166
 H        -2.351016        -1.586510        -1.137711
 H        -1.065425        -0.615924        -2.088746
 H         0.584265        -2.009489         1.152381
 H        -0.841396         1.764003         0.897978
 H        -0.277241         1.899468        -0.689947
