19
Iteration:  3086charge 0 multiplicity 1
 C        -3.036801        -1.482427         1.522692
 C        -1.894190        -0.509056         1.135045
 C        -2.014447         0.384705        -0.174052
 C        -1.571434        -0.937762        -0.977122
 C        -0.636172        -1.151220         0.385921
 O        -0.030034        -2.345964         0.499698
 C         0.281241         0.001076         0.093522
 O         1.517008        -0.021714         0.272626
 C        -0.637699         1.145630        -0.230406
 H        -4.001918        -1.452806         0.929634
 H        -2.659067        -2.434249         1.518592
 H        -3.250311        -1.181986         2.517958
 H        -1.525739         0.008219         2.074242
 H        -2.884808         1.000609        -0.300039
 H        -2.292172        -1.819357        -1.002583
 H        -0.955471        -0.967006        -1.881309
 H         0.889420        -2.094062         0.415754
 H        -0.855378         1.849547         0.519115
 H        -0.274858         1.678656        -1.074236
