19
Iteration:  2447charge 0 multiplicity 1
 C        -3.013894        -1.402965         1.414432
 C        -1.766267        -0.595099         1.176020
 C        -1.972134         0.339849        -0.068554
 C        -1.639494        -0.838039        -0.906200
 C        -0.643284        -1.224616         0.277734
 O        -0.092515        -2.442470         0.494161
 C         0.303657        -0.013001         0.101137
 O         1.502547         0.035500         0.054259
 C        -0.631900         1.195553         0.030365
 H        -3.726315        -0.697673         1.759036
 H        -3.636554        -1.910516         0.496773
 H        -2.866037        -2.207276         2.194866
 H        -1.614048         0.161972         2.111670
 H        -2.886544         0.889403        -0.153021
 H        -2.495452        -1.524003        -1.041849
 H        -1.091624        -0.988037        -1.935843
 H         0.882863        -2.277345         0.534939
 H        -0.505153         1.805826         0.939086
 H        -0.392052         1.830966        -0.843830
