19
Iteration:   692
 C        -2.750586        -1.515585         1.680050
 C        -1.722404        -0.631534         1.105942
 C        -2.018384         0.444524        -0.160797
 C        -1.625018        -0.772426        -1.164905
 C        -0.728551        -1.116132         0.094131
 O        -0.206624        -2.477793         0.503948
 C         0.297592        -0.044039         0.122699
 O         1.471043        -0.071534         0.378057
 C        -0.712576         1.284312        -0.084946
 H        -3.347150        -2.071165         1.002928
 H        -2.422534        -2.247356         2.384394
 H        -3.373845        -0.805344         2.235737
 H        -1.305725        -0.025609         1.883496
 H        -2.970980         0.959739        -0.265900
 H        -2.410739        -1.465444        -1.128595
 H        -1.100471        -0.587912        -2.133342
 H         0.759926        -2.470374         0.493751
 H        -0.552054         2.159895         0.524390
 H        -0.527979         1.663069        -1.073320
