19
Iteration:   891charge 0 multiplicity 1
 C        -2.797070        -1.539938         1.503059
 C        -1.717238        -0.507029         1.165541
 C        -1.964710         0.404350        -0.095983
 C        -1.750744        -0.820735        -0.942001
 C        -0.675557        -1.181324         0.219014
 O        -0.208447        -2.472385         0.411488
 C         0.304877         0.001089         0.058604
 O         1.486569         0.062836         0.402496
 C        -0.618116         1.136530        -0.222719
 H        -3.478909        -1.882799         0.655903
 H        -2.440141        -2.287636         2.212853
 H        -3.604889        -0.960803         2.047931
 H        -1.496716         0.192325         2.022794
 H        -2.833445         1.099330        -0.026506
 H        -2.473382        -1.743382        -0.986189
 H        -1.284458        -0.528044        -1.946182
 H         0.747457        -2.587667         0.433350
 H        -0.557646         1.799332         0.661865
 H        -0.539895         1.651095        -1.184825
