19
Iteration:    64charge 0 multiplicity 1
 C        -2.798971        -1.471482         1.624977
 C        -1.714443        -0.510316         1.119075
 C        -1.985203         0.392771        -0.068789
 C        -1.747489        -0.779988        -1.015097
 C        -0.646718        -1.238041         0.057258
 O        -0.203113        -2.500199         0.385619
 C         0.330323        -0.054092         0.065038
 O         1.510949        -0.004528         0.387285
 C        -0.690132         1.213034        -0.097273
 H        -2.499831        -2.509687         1.498001
 H        -3.048620        -1.150170         2.627183
 H        -3.723235        -1.257197         1.023967
 H        -1.383198         0.078046         2.004191
 H        -2.989995         0.898173        -0.129415
 H        -2.609409        -1.366696        -1.352823
 H        -1.260414        -0.464489        -1.968207
 H         0.572943        -2.520556         0.964983
 H        -0.638415         1.955004         0.784376
 H        -0.447463         1.897729        -0.905302
