19
Iteration:  2201charge 0 multiplicity 1
 C        -2.924240        -1.575410         1.491131
 C        -1.860396        -0.503590         1.243592
 C        -1.999770         0.378185        -0.072959
 C        -1.576443        -0.820587        -0.899703
 C        -0.693919        -1.133401         0.329951
 O        -0.259905        -2.474040         0.408869
 C         0.334367         0.021275         0.115628
 O         1.561338         0.030058         0.011841
 C        -0.573252         1.185436        -0.017721
 H        -3.821302        -1.604539         0.741901
 H        -2.485105        -2.480356         1.677350
 H        -3.435067        -1.235718         2.419390
 H        -1.430072        -0.013111         2.184118
 H        -2.894980         0.964320        -0.388944
 H        -2.247551        -1.700707        -1.004117
 H        -1.118378        -0.621712        -1.868321
 H         0.716554        -2.370011         0.591915
 H        -0.406655         1.992093         0.699731
 H        -0.314637         1.665416        -0.929958
