19
Iteration:  3686
 C        -2.977356        -1.343617         1.608365
 C        -1.813463        -0.509546         1.131097
 C        -2.040203         0.320954        -0.175043
 C        -1.613549        -0.886855        -0.969267
 C        -0.640129        -1.185156         0.196934
 O        -0.097913        -2.474367         0.387037
 C         0.361800         0.012417         0.070062
 O         1.548555         0.041904         0.367272
 C        -0.715127         1.141568        -0.141945
 H        -3.145330        -2.193559         0.921348
 H        -2.847550        -1.968403         2.445024
 H        -3.718194        -0.581398         1.712594
 H        -1.576567         0.064833         1.981302
 H        -3.004854         0.740755        -0.439108
 H        -2.289018        -1.708852        -0.854542
 H        -1.070174        -0.911476        -2.011515
 H         0.688050        -2.453309         0.930318
 H        -0.699126         1.700169         0.755369
 H        -0.422517         1.749625        -1.015905
