19
Iteration:  2026charge 0 multiplicity 1
 C        -2.777290        -1.510959         1.638138
 C        -1.738347        -0.444984         1.125833
 C        -1.958392         0.361909        -0.115585
 C        -1.623211        -0.819686        -1.020615
 C        -0.672434        -1.110867         0.138327
 O        -0.188468        -2.367757         0.373097
 C         0.250064         0.014990         0.120170
 O         1.412764        -0.156290         0.352686
 C        -0.654084         1.165701        -0.043372
 H        -2.866555        -2.411278         0.907897
 H        -2.410207        -1.926754         2.516827
 H        -3.824197        -1.137227         1.957374
 H        -1.344392         0.252531         1.800780
 H        -2.961587         0.871462        -0.297195
 H        -2.428977        -1.556564        -1.028243
 H        -1.048062        -0.699758        -1.989874
 H         0.545369        -2.470667        -0.191623
 H        -0.655251         2.029126         0.726692
 H        -0.648357         1.674101        -0.986974
