19
Iteration:  3250
 C        -3.014455        -1.365049         1.513429
 C        -1.766862        -0.597160         1.160052
 C        -1.994974         0.315354        -0.072314
 C        -1.581209        -0.941971        -1.021757
 C        -0.671618        -1.214087         0.175006
 O        -0.081875        -2.455114         0.595393
 C         0.296466         0.028509         0.056405
 O         1.480664         0.081342         0.233477
 C        -0.641923         1.195812        -0.103239
 H        -3.605005        -1.960642         0.733930
 H        -2.714356        -2.064757         2.230564
 H        -3.768209        -0.637139         1.829547
 H        -1.309324        -0.157981         2.040876
 H        -2.830672         0.893301        -0.418682
 H        -2.422953        -1.662271        -1.107488
 H        -1.248271        -0.535097        -1.945331
 H         0.845251        -2.268962         0.552627
 H        -0.326022         1.967447         0.631020
 H        -0.638733         1.462363        -1.155305
