19
Iteration:  4083charge 0 multiplicity 1
 C        -2.983412        -1.493966         1.533980
 C        -1.792396        -0.566834         1.197066
 C        -1.933633         0.390107        -0.184757
 C        -1.589070        -0.843251        -0.997961
 C        -0.694035        -1.197901         0.289197
 O        -0.149710        -2.545648         0.511590
 C         0.315325         0.063034         0.143089
 O         1.512543         0.071607         0.268929
 C        -0.654901         1.223745        -0.188068
 H        -3.156381        -2.218908         0.804681
 H        -2.720601        -2.083449         2.414994
 H        -3.812968        -0.812502         1.647450
 H        -1.602684         0.143935         2.028449
 H        -2.915182         0.965937        -0.349618
 H        -2.384641        -1.617201        -1.062240
 H        -1.174185        -0.645658        -1.993209
 H         0.776032        -2.577500         0.177586
 H        -0.527005         2.014583         0.606660
 H        -0.435822         1.629205        -1.127940
