19
Iteration:  1284
 C        -3.007994        -1.325246         1.533224
 C        -1.719716        -0.527723         1.139067
 C        -1.969353         0.355804        -0.069529
 C        -1.594023        -0.887826        -0.966720
 C        -0.637748        -1.276313         0.218713
 O        -0.094573        -2.602088         0.313799
 C         0.287809         0.038529         0.151757
 O         1.482530         0.059192         0.261529
 C        -0.715477         1.265966        -0.045438
 H        -3.407452        -1.816989         0.624935
 H        -2.875311        -2.107815         2.329488
 H        -3.838826        -0.753697         1.895749
 H        -1.324699        -0.023732         2.089782
 H        -3.017581         0.643876        -0.205336
 H        -2.406348        -1.552668        -0.807604
 H        -0.966932        -0.796732        -1.830876
 H         0.915342        -2.414172         0.458438
 H        -0.701809         2.028923         0.792478
 H        -0.438085         1.871075        -0.951365
