19
Iteration:   458
 C        -3.066051        -1.312009         1.609512
 C        -1.832531        -0.563568         1.128227
 C        -1.996973         0.349504        -0.150665
 C        -1.442760        -0.854463        -0.963945
 C        -0.748670        -1.241454         0.298095
 O         0.043395        -2.408721         0.269113
 C         0.248617        -0.044122         0.348481
 O         1.449872        -0.087971         0.124495
 C        -0.703859         1.226248        -0.075259
 H        -3.575008        -1.929393         0.815350
 H        -2.574486        -2.112588         2.224670
 H        -3.612319        -0.599033         2.162822
 H        -1.466602         0.083498         1.927126
 H        -2.979744         0.842327        -0.329265
 H        -2.357521        -1.583678        -1.124967
 H        -0.825286        -0.834053        -1.890301
 H         0.803466        -2.161284         0.838519
 H        -0.590542         1.813060         0.808068
 H        -0.342173         1.815470        -0.932727
