19
Iteration:   120
 C        -3.083552        -1.417032         1.774770
 C        -1.836492        -0.521828         1.204033
 C        -1.997050         0.438487        -0.083988
 C        -1.669288        -0.866953        -1.028406
 C        -0.598387        -1.155792         0.158751
 O         0.023995        -2.395536         0.159855
 C         0.287871        -0.027958         0.187806
 O         1.513499        -0.135028         0.371557
 C        -0.658597         1.188491        -0.164416
 H        -2.969083        -2.413720         1.317139
 H        -3.129458        -1.574354         2.836952
 H        -3.987235        -1.032706         1.348146
 H        -1.382440        -0.011581         2.079642
 H        -2.827640         1.072308        -0.235981
 H        -2.411917        -1.585608        -0.969526
 H        -1.324842        -0.661013        -2.041664
 H         1.007948        -2.270188         0.417342
 H        -0.585910         2.038485         0.510921
 H        -0.453592         1.389515        -1.212587
