19
Iteration:  3786charge 0 multiplicity 1
 C        -2.803409        -1.489221         1.685207
 C        -1.826129        -0.449105         1.069619
 C        -1.970363         0.353429        -0.274344
 C        -1.557742        -0.916494        -1.034011
 C        -0.680335        -1.189501         0.142087
 O        -0.215114        -2.454842         0.502400
 C         0.270806         0.043416         0.160393
 O         1.436259         0.009860         0.439722
 C        -0.627914         1.196933        -0.189782
 H        -3.568891        -2.088228         1.091138
 H        -2.130370        -2.207571         2.084620
 H        -3.351480        -0.955787         2.458399
 H        -1.513778         0.128295         1.912282
 H        -2.864537         0.901679        -0.539155
 H        -2.404775        -1.616989        -1.153679
 H        -1.120997        -0.815420        -2.117765
 H         0.735316        -2.333449         0.343278
 H        -0.614186         2.051665         0.484455
 H        -0.503589         1.576585        -1.201043
