19
Iteration:  1986
 C        -2.966497        -1.595307         1.474211
 C        -1.797237        -0.558194         1.178536
 C        -1.909004         0.405541         0.072410
 C        -1.746402        -0.737495        -0.929477
 C        -0.682758        -1.187241         0.168712
 O        -0.085001        -2.399421         0.469998
 C         0.314840         0.002774         0.043756
 O         1.502421        -0.008512         0.219640
 C        -0.584553         1.129736        -0.176237
 H        -3.080182        -2.317218         0.622425
 H        -2.874696        -2.105376         2.421773
 H        -3.836205        -0.991061         1.438322
 H        -1.518010        -0.132002         2.181742
 H        -2.658306         1.170275        -0.084621
 H        -2.641540        -1.366768        -0.946219
 H        -1.533160        -0.424037        -1.934599
 H         0.620299        -2.260247         1.159606
 H        -0.269406         2.020757         0.449811
 H        -0.558157         1.526542        -1.187938
