19
Iteration:   655
 C        -2.910025        -1.427725         1.547923
 C        -1.823899        -0.434610         1.234336
 C        -2.008872         0.439591        -0.077283
 C        -1.737140        -0.918943        -0.918454
 C        -0.676285        -1.243306         0.308386
 O        -0.025907        -2.433731         0.176408
 C         0.298957        -0.048346         0.059008
 O         1.454734        -0.010054         0.435641
 C        -0.583218         1.182059        -0.207432
 H        -3.440293        -1.629875         0.604290
 H        -2.489371        -2.283162         2.132636
 H        -3.582942        -0.917672         2.220204
 H        -1.591758         0.111729         2.196933
 H        -2.904854         1.082834        -0.169008
 H        -2.494133        -1.781366        -0.902903
 H        -1.264313        -1.067331        -1.904997
 H         0.833179        -2.282326         0.552754
 H        -0.273867         1.891484         0.539491
 H        -0.501385         1.506220        -1.282782
