19
Iteration:  3310
 C        -2.961676        -1.647487         1.417241
 C        -1.854297        -0.526843         1.130061
 C        -1.989086         0.441970        -0.153769
 C        -1.484531        -0.807863        -0.994740
 C        -0.667295        -1.102544         0.380572
 O        -0.179418        -2.364086         0.763899
 C         0.303591        -0.002917         0.149915
 O         1.483401        -0.111079        -0.012966
 C        -0.650988         1.253571        -0.146290
 H        -3.729045        -1.755816         0.691318
 H        -2.422286        -2.627664         1.534332
 H        -3.341464        -1.504841         2.432187
 H        -1.511142        -0.017779         2.119832
 H        -2.960974         0.912394        -0.475925
 H        -2.170920        -1.649777        -1.193053
 H        -1.047123        -0.547343        -2.011800
 H         0.803485        -2.210202         0.856571
 H        -0.476773         1.852313         0.747755
 H        -0.494789         1.972312        -0.970930
