19
Iteration:  1907charge 0 multiplicity 1
 C        -3.080487        -1.432505         1.611680
 C        -1.802172        -0.652191         1.117061
 C        -1.969202         0.342582        -0.146326
 C        -1.559763        -0.714228        -1.124807
 C        -0.670569        -1.195916         0.205152
 O        -0.049832        -2.377696         0.579506
 C         0.272466        -0.011348         0.118843
 O         1.479564        -0.091755         0.087705
 C        -0.656184         1.205505         0.019454
 H        -3.751689        -2.139429         0.999997
 H        -2.585275        -2.148879         2.184168
 H        -3.546137        -0.835664         2.396543
 H        -1.345137        -0.116310         2.073987
 H        -2.906659         0.826754        -0.560065
 H        -2.368272        -1.413426        -1.236592
 H        -0.917583        -0.490953        -1.974494
 H         0.871041        -2.250016         0.534103
 H        -0.530765         1.696716         1.094043
 H        -0.340622         1.990454        -0.667750
