19
Iteration:  4630
 C        -2.880306        -1.453293         1.509613
 C        -1.809104        -0.486271         1.058198
 C        -1.977017         0.372013        -0.146701
 C        -1.621638        -0.974297        -0.998721
 C        -0.703845        -1.137285         0.195238
 O        -0.182880        -2.391910         0.539673
 C         0.322586        -0.016628         0.158452
 O         1.527875        -0.003349         0.264314
 C        -0.660009         1.160395        -0.124071
 H        -3.268164        -2.070284         0.752973
 H        -2.218741        -2.147174         2.119171
 H        -3.664231        -1.050002         2.240751
 H        -1.384147         0.138114         1.963043
 H        -2.874865         1.015094        -0.233238
 H        -2.587211        -1.651303        -0.986667
 H        -1.150699        -0.685702        -2.037494
 H         0.719625        -2.326238         0.919734
 H        -0.793022         1.958854         0.719222
 H        -0.482077         1.680887        -1.008566
