19
Iteration:  1565
 C        -2.926046        -1.491346         1.675322
 C        -1.848646        -0.538431         1.096573
 C        -1.911539         0.398241        -0.153976
 C        -1.458682        -0.870119        -1.050522
 C        -0.748449        -1.177474         0.234982
 O        -0.171303        -2.426920         0.364904
 C         0.294751         0.039221         0.167340
 O         1.505478        -0.057903         0.184438
 C        -0.695070         1.226914        -0.010708
 H        -3.499534        -1.902746         0.888303
 H        -2.475257        -2.393348         2.351514
 H        -3.803062        -0.864047         2.232986
 H        -1.444086        -0.012976         1.971577
 H        -2.870022         0.830486        -0.482161
 H        -2.279009        -1.626047        -1.098853
 H        -0.889893        -0.664911        -1.997792
 H         0.508383        -2.167046         0.977694
 H        -0.706995         1.783020         0.901492
 H        -0.497108         1.843340        -0.912016
