19
Iteration:  4612charge 0 multiplicity 1
 C        -2.820377        -1.486463         1.666176
 C        -1.839349        -0.479373         1.164070
 C        -2.015204         0.353930        -0.284944
 C        -1.609634        -0.856579        -1.065802
 C        -0.601852        -1.170289         0.223477
 O        -0.184918        -2.467236         0.468712
 C         0.278809         0.034314         0.139672
 O         1.475462        -0.042162         0.346538
 C        -0.689703         1.237693        -0.182823
 H        -3.353495        -1.923091         0.727557
 H        -2.570417        -2.371403         2.222249
 H        -3.335363        -0.821063         2.312761
 H        -1.303727         0.013418         1.987221
 H        -2.930823         0.811176        -0.617845
 H        -2.361656        -1.598034        -0.944056
 H        -1.080568        -0.751334        -2.027425
 H         0.640441        -2.355191         0.989884
 H        -0.628487         1.873218         0.637064
 H        -0.296691         1.787289        -1.110386
