19
Iteration:  3621
 C        -3.014685        -1.611652         1.412059
 C        -1.990880        -0.565110         1.192487
 C        -2.013053         0.401909        -0.117614
 C        -1.524965        -0.843448        -0.993039
 C        -0.634383        -1.103444         0.330962
 O        -0.120433        -2.309007         0.768598
 C         0.359846         0.073495         0.095698
 O         1.583250        -0.141015         0.040255
 C        -0.631594         1.222299        -0.139055
 H        -3.479562        -2.007580         0.396411
 H        -2.519768        -2.528089         1.742621
 H        -3.783915        -1.261883         2.102105
 H        -1.600556         0.046826         2.036239
 H        -2.948891         0.942870        -0.094917
 H        -2.371972        -1.508037        -1.088479
 H        -1.099196        -0.658700        -2.099651
 H         0.656739        -2.360150         0.148307
 H        -0.594468         1.916868         0.733050
 H        -0.397666         1.845590        -1.046999
