19
Iteration:  3635charge 0 multiplicity 1
 C        -2.989791        -1.601187         1.473563
 C        -1.887947        -0.472241         1.093924
 C        -1.949821         0.373328        -0.137067
 C        -1.557218        -0.786535        -1.036082
 C        -0.705348        -1.134950         0.371197
 O        -0.129270        -2.361237         0.700650
 C         0.332611        -0.015188         0.130433
 O         1.542821        -0.070629         0.060810
 C        -0.665972         1.195600        -0.106338
 H        -3.501019        -2.180167         0.620324
 H        -2.434163        -2.404626         2.048425
 H        -3.754023        -1.151508         2.204475
 H        -1.805571        -0.011362         2.160660
 H        -2.728719         1.006361        -0.535066
 H        -2.169684        -1.632236        -1.313185
 H        -0.834526        -0.487205        -1.788799
 H         0.785969        -2.468147         0.355469
 H        -0.616580         1.950432         0.796797
 H        -0.611477         1.699362        -1.065023
