19
Iteration:  4051charge 0 multiplicity 1
 C        -2.984050        -1.350769         1.588907
 C        -1.778076        -0.573714         1.157394
 C        -1.924111         0.318858        -0.083492
 C        -1.630302        -0.901163        -1.045814
 C        -0.617451        -1.181901         0.179563
 O        -0.075631        -2.438911         0.372346
 C         0.282958         0.046490         0.115529
 O         1.454938         0.043020         0.502516
 C        -0.701632         1.090046        -0.251837
 H        -3.504949        -1.814732         0.840496
 H        -2.791556        -2.006834         2.463242
 H        -3.604128        -0.663512         2.137829
 H        -1.419696         0.143891         1.920070
 H        -2.904185         0.959532        -0.063577
 H        -2.269556        -1.836880        -1.065179
 H        -1.232969        -0.621985        -2.099630
 H         0.890722        -2.436143         0.065575
 H        -0.481701         2.049406         0.241036
 H        -0.652130         1.299567        -1.214175
