19
Iteration:   309
 C        -3.061877        -1.316797         1.559992
 C        -1.733249        -0.588495         1.195103
 C        -1.996245         0.340927        -0.051708
 C        -1.577631        -0.876162        -0.990550
 C        -0.641590        -1.144769         0.167509
 O        -0.102721        -2.471872         0.351183
 C         0.305496        -0.039764         0.134805
 O         1.527119         0.033249         0.318119
 C        -0.695299         1.149613        -0.088215
 H        -3.369522        -1.828798         0.652515
 H        -2.720258        -2.007924         2.336265
 H        -3.875582        -0.698770         1.916943
 H        -1.144151        -0.063526         1.994588
 H        -2.958055         0.956807        -0.183396
 H        -2.221123        -1.854970        -1.046513
 H        -1.173059        -0.635966        -1.975151
 H         0.822310        -2.585438        -0.084556
 H        -0.771446         1.823345         0.750783
 H        -0.706247         1.731824        -1.050680
