19
Iteration:  1767
 C        -2.979038        -1.366358         1.731176
 C        -1.831895        -0.544543         1.116831
 C        -2.027322         0.328180        -0.121776
 C        -1.695315        -0.805172        -0.945100
 C        -0.634818        -1.161305         0.163242
 O        -0.024747        -2.354767         0.146799
 C         0.295801        -0.041194         0.182103
 O         1.506902        -0.079285         0.487443
 C        -0.639940         1.087106        -0.198976
 H        -3.174788        -2.215506         0.928288
 H        -2.591143        -1.896295         2.600051
 H        -3.807287        -0.694394         1.957656
 H        -1.490412         0.017312         1.926798
 H        -2.874307         1.010139        -0.339882
 H        -2.434323        -1.576636        -0.817903
 H        -1.363611        -0.736216        -1.963512
 H         0.878259        -2.103497         0.432512
 H        -0.542969         2.051288         0.333845
 H        -0.297168         1.239555        -1.197283
