19
Iteration:   119charge 0 multiplicity 1
 C        -3.085281        -1.416461         1.785874
 C        -1.838234        -0.529729         1.200579
 C        -1.992853         0.436084        -0.096253
 C        -1.662400        -0.868063        -1.037295
 C        -0.605935        -1.166193         0.163665
 O         0.019627        -2.385344         0.157775
 C         0.294480        -0.013831         0.194102
 O         1.511438        -0.143110         0.371617
 C        -0.656540         1.188638        -0.162567
 H        -2.935256        -2.412179         1.345423
 H        -3.095840        -1.576158         2.842923
 H        -3.995916        -1.018844         1.331510
 H        -1.394819        -0.036350         2.090143
 H        -2.846385         1.078404        -0.267024
 H        -2.418241        -1.569401        -0.920203
 H        -1.333052        -0.643889        -2.040478
 H         1.037573        -2.289246         0.391081
 H        -0.602813         2.069258         0.521053
 H        -0.481386         1.399081        -1.206669
