19
Iteration:  4582
 C        -2.825696        -1.399228         1.684496
 C        -1.779055        -0.541744         1.135131
 C        -2.020196         0.321467        -0.205774
 C        -1.673097        -0.856020        -1.119909
 C        -0.732199        -1.129853         0.240832
 O        -0.081378        -2.455863         0.371876
 C         0.259184        -0.016800         0.196556
 O         1.451892         0.022791         0.483197
 C        -0.640318         1.108126        -0.270511
 H        -3.671610        -1.702807         0.934378
 H        -2.455910        -2.142617         2.395052
 H        -3.427935        -0.664305         2.283222
 H        -1.340237         0.012844         1.929635
 H        -2.896900         1.010856        -0.204248
 H        -2.428306        -1.597841        -1.255863
 H        -1.017745        -0.743111        -1.970481
 H         0.953744        -2.373725         0.379743
 H        -0.545525         1.990004         0.392294
 H        -0.300524         1.419172        -1.350714
