19
Iteration:  4754charge 0 multiplicity 1
 C        -2.923081        -1.451798         1.577752
 C        -1.803532        -0.523873         1.122032
 C        -2.017345         0.289246        -0.139059
 C        -1.539958        -0.878487        -1.002306
 C        -0.695214        -1.153825         0.316132
 O        -0.142006        -2.407009         0.524738
 C         0.292861         0.048676         0.105015
 O         1.511883        -0.024629         0.238098
 C        -0.687723         1.176061        -0.165687
 H        -3.379941        -1.974829         0.621942
 H        -2.841091        -2.308290         2.217157
 H        -3.615359        -0.722933         1.983011
 H        -1.445762         0.076771         2.045840
 H        -2.957872         0.756846        -0.341689
 H        -2.321183        -1.555725        -1.252729
 H        -0.735806        -0.459510        -1.836444
 H         0.785092        -2.403427         0.413986
 H        -0.573940         1.971860         0.569017
 H        -0.480443         1.566022        -1.246793
