19
Iteration:  4524
 C        -2.931539        -1.316081         1.615721
 C        -1.752132        -0.468185         1.195728
 C        -1.958340         0.333135        -0.146104
 C        -1.636677        -0.894321        -0.992514
 C        -0.635669        -1.203791         0.172276
 O        -0.025932        -2.406778         0.316651
 C         0.211162        -0.026609         0.169689
 O         1.407931        -0.034396         0.420532
 C        -0.671643         1.102538        -0.222999
 H        -3.131123        -2.153289         0.796658
 H        -2.751931        -2.042194         2.438501
 H        -3.786791        -0.684641         1.889626
 H        -1.227084         0.009525         1.993579
 H        -2.890043         0.838770        -0.176353
 H        -2.508456        -1.520248        -1.075123
 H        -1.126268        -0.903785        -1.896942
 H         0.795422        -2.080462         0.758613
 H        -0.757975         1.971034         0.415350
 H        -0.364396         1.416951        -1.300308
