19
Iteration:  2989charge 0 multiplicity 1
 C        -2.935122        -1.481501         1.403717
 C        -1.849937        -0.526480         1.168599
 C        -1.961573         0.352562        -0.189136
 C        -1.376201        -0.889643        -0.912109
 C        -0.601520        -1.120187         0.350092
 O        -0.229056        -2.470497         0.674603
 C         0.248995         0.060310         0.128895
 O         1.454232         0.018934         0.024883
 C        -0.721710         1.190396        -0.100682
 H        -3.902988        -0.904982         1.357779
 H        -2.909530        -2.311338         0.795371
 H        -2.803056        -1.833438         2.413386
 H        -1.514604        -0.083522         2.091265
 H        -2.909479         0.789339        -0.399198
 H        -2.097048        -1.731338        -1.094914
 H        -0.788071        -0.771752        -1.828349
 H         0.650950        -2.353579         1.193065
 H        -0.707681         2.187908         0.344326
 H        -0.396156         1.328939        -1.116840
