19
Iteration:  3112charge 0 multiplicity 1
 C        -2.949934        -1.506413         1.566908
 C        -1.820481        -0.404505         1.136955
 C        -1.946405         0.337658        -0.185352
 C        -1.641055        -0.983506        -0.947645
 C        -0.590311        -1.225258         0.162045
 O        -0.201355        -2.490209         0.429780
 C         0.305271         0.057684         0.199237
 O         1.522446         0.139904         0.396176
 C        -0.629896         1.191763        -0.219518
 H        -3.666024        -1.732881         0.839090
 H        -2.418908        -2.488340         1.821973
 H        -3.452622        -1.044036         2.459195
 H        -1.389806         0.182043         1.937729
 H        -2.936949         0.811792        -0.381403
 H        -2.543818        -1.547597        -0.743084
 H        -1.340643        -1.090863        -2.014568
 H         0.736295        -2.465940         0.494510
 H        -0.759518         2.216740         0.194754
 H        -0.225587         1.274527        -1.230361
