19
Iteration:  4014charge 0 multiplicity 1
 C        -2.795510        -1.350580         1.686483
 C        -1.776918        -0.490700         1.043331
 C        -1.945254         0.324644        -0.246527
 C        -1.722714        -0.994824        -1.063528
 C        -0.640289        -1.202520         0.152887
 O        -0.000664        -2.358521         0.327306
 C         0.187695        -0.006494         0.146742
 O         1.327488        -0.049648         0.547572
 C        -0.601031         1.203382        -0.153487
 H        -3.544610        -1.723285         0.853596
 H        -2.427740        -2.277460         2.057681
 H        -3.384021        -0.651890         2.349010
 H        -1.384204         0.107114         1.904184
 H        -2.792856         0.925074        -0.304336
 H        -2.582916        -1.640686        -0.892628
 H        -1.376850        -1.091285        -2.037050
 H         0.690531        -2.334738         1.053955
 H        -0.569969         2.007326         0.621717
 H        -0.463217         1.529259        -1.256399
