19
Iteration:  4616charge 0 multiplicity 1
 C        -2.822626        -1.500605         1.638224
 C        -1.791261        -0.477118         1.129182
 C        -2.004734         0.363003        -0.292341
 C        -1.641465        -0.853342        -1.058795
 C        -0.612513        -1.179727         0.252747
 O        -0.190110        -2.454540         0.480444
 C         0.282736         0.059883         0.150346
 O         1.500185        -0.046306         0.327857
 C        -0.697688         1.210415        -0.170620
 H        -3.369976        -1.911839         0.784448
 H        -2.556645        -2.404459         2.219833
 H        -3.470120        -0.824297         2.265425
 H        -1.411209         0.108358         1.956562
 H        -2.994621         0.877222        -0.476308
 H        -2.354212        -1.678524        -1.036103
 H        -1.151664        -0.877186        -1.991611
 H         0.614590        -2.307756         1.014626
 H        -0.659850         1.909415         0.734776
 H        -0.293384         1.766092        -1.052258
