19
Iteration:   229charge 0 multiplicity 1
 C        -2.861962        -1.594429         1.553386
 C        -1.775548        -0.517959         1.118113
 C        -1.951506         0.480595        -0.135197
 C        -1.504561        -0.856554        -1.091054
 C        -0.653535        -1.079145         0.232964
 O        -0.198479        -2.372788         0.527754
 C         0.289134         0.018824         0.155613
 O         1.454621        -0.218454         0.073130
 C        -0.758052         1.253987         0.060717
 H        -3.593637        -1.933096         0.796497
 H        -2.410262        -2.543198         1.828681
 H        -3.327156        -1.143163         2.378561
 H        -1.499299         0.149629         1.940681
 H        -2.809661         1.043525        -0.340353
 H        -2.378334        -1.385927        -1.092579
 H        -1.096834        -0.795716        -2.036173
 H         0.732943        -2.230459         1.010575
 H        -0.860854         1.915003         0.932968
 H        -0.400147         2.028551        -0.636023
