19
Iteration:  4981
 C        -2.926226        -1.503553         1.458453
 C        -1.851564        -0.491430         1.109194
 C        -2.022421         0.358647        -0.132759
 C        -1.534311        -0.834524        -0.936580
 C        -0.658642        -1.177712         0.264391
 O        -0.101554        -2.392509         0.650160
 C         0.279949         0.026485         0.126679
 O         1.489289        -0.098901         0.076182
 C        -0.680052         1.236399        -0.085947
 H        -3.323255        -1.777919         0.455724
 H        -2.651532        -2.393503         1.939059
 H        -3.608803        -0.908291         2.079144
 H        -1.446203         0.151143         1.990908
 H        -2.972774         0.635888        -0.450527
 H        -2.316446        -1.745487        -0.954678
 H        -0.966924        -0.639326        -1.728816
 H         0.888023        -2.188435         0.646161
 H        -0.664476         1.737258         0.869283
 H        -0.557685         1.733600        -0.969194
