19
Iteration:  1850charge 0 multiplicity 1
 C        -2.894682        -1.607284         1.472425
 C        -1.854847        -0.549785         1.197450
 C        -1.978870         0.504563        -0.073461
 C        -1.702552        -0.821921        -0.904699
 C        -0.638240        -1.127252         0.281434
 O        -0.152968        -2.458318         0.396694
 C         0.298401         0.002732         0.137388
 O         1.501203        -0.018768         0.293428
 C        -0.569494         1.206744        -0.228147
 H        -3.550617        -1.948041         0.747870
 H        -2.492448        -2.447670         2.075737
 H        -3.579615        -1.091774         2.214344
 H        -1.577471         0.038182         2.144877
 H        -2.766508         1.214032        -0.386810
 H        -2.479554        -1.619186        -0.917443
 H        -1.244549        -0.871411        -1.933820
 H         0.798471        -2.416281         0.343041
 H        -0.358214         2.027939         0.529686
 H        -0.373950         1.569385        -1.306371
