19
Iteration:  2321
 C        -2.830482        -1.421768         1.657249
 C        -1.663044        -0.519380         1.174836
 C        -1.926799         0.414884        -0.039633
 C        -1.656822        -0.751386        -1.041194
 C        -0.683071        -1.202358         0.120207
 O        -0.217917        -2.562043         0.266302
 C         0.262775         0.022120         0.158985
 O         1.469504        -0.021490         0.405560
 C        -0.692347         1.182586        -0.177437
 H        -3.201046        -2.350363         1.035900
 H        -2.504489        -1.910915         2.475442
 H        -3.761013        -0.909864         1.928528
 H        -1.239132        -0.017773         2.074502
 H        -2.996186         0.647779         0.025683
 H        -2.514401        -1.448153        -1.116556
 H        -1.150248        -0.489610        -1.958734
 H         0.730256        -2.423757         0.310579
 H        -0.677346         2.020015         0.535059
 H        -0.570010         1.634476        -1.159392
