19
Iteration:  2178
 C        -2.809047        -1.516296         1.517685
 C        -1.813909        -0.485109         1.138614
 C        -1.935290         0.381054        -0.102885
 C        -1.571549        -0.796035        -1.016107
 C        -0.692733        -1.167890         0.234828
 O        -0.192464        -2.424033         0.501217
 C         0.267168        -0.008065         0.146822
 O         1.457410        -0.123882         0.045909
 C        -0.706143         1.262633         0.052211
 H        -3.796144        -1.341289         0.904872
 H        -2.366842        -2.467483         1.450493
 H        -3.163097        -1.339905         2.573039
 H        -1.251073        -0.018830         2.031171
 H        -2.883082         0.954166        -0.304027
 H        -2.298466        -1.620805        -1.050001
 H        -1.101917        -0.725576        -2.006823
 H         0.760159        -2.428183         0.842658
 H        -0.569325         1.781886         0.988946
 H        -0.571333         2.040801        -0.707271
