19
Iteration:   202
 C        -2.828371        -1.612345         1.662002
 C        -1.899797        -0.496525         1.129632
 C        -2.051236         0.455760        -0.178896
 C        -1.517496        -0.752227        -1.092310
 C        -0.711784        -1.125546         0.261159
 O        -0.220528        -2.446242         0.526271
 C         0.265495        -0.034907         0.208362
 O         1.494253        -0.052001         0.129115
 C        -0.574427         1.164641        -0.077078
 H        -3.377235        -2.156653         0.875667
 H        -2.207402        -2.458488         2.043838
 H        -3.530443        -1.245079         2.491228
 H        -1.579775         0.093619         2.035041
 H        -2.910458         1.142708        -0.525958
 H        -2.271007        -1.529443        -1.550061
 H        -0.920592        -0.200920        -1.897357
 H         0.698357        -2.410831         0.090236
 H        -0.566895         1.787728         0.876788
 H        -0.046379         1.874933        -0.740128
