19
Iteration:  4416charge 0 multiplicity 1
 C        -3.053378        -1.583622         1.371650
 C        -1.898323        -0.553102         1.149469
 C        -1.936694         0.427963        -0.054860
 C        -1.519569        -0.856700        -0.948257
 C        -0.703662        -1.135086         0.390491
 O        -0.057611        -2.306325         0.648293
 C         0.309836         0.003175         0.187195
 O         1.517644        -0.088899         0.002167
 C        -0.645200         1.176188        -0.136669
 H        -3.856607        -1.765710         0.551944
 H        -2.660496        -2.373660         1.981676
 H        -3.786083        -1.057957         1.948770
 H        -1.735201        -0.280978         2.184264
 H        -2.827534         0.977894        -0.195921
 H        -2.379003        -1.569698        -1.092595
 H        -0.869669        -0.791704        -1.881289
 H         0.895928        -2.034861         0.313136
 H        -0.425114         1.900108         0.639722
 H        -0.483764         1.689257        -1.222139
