19
Iteration:  1841charge 0 multiplicity 1
 C        -2.937892        -1.557514         1.567932
 C        -1.819968        -0.521152         1.154123
 C        -1.953910         0.403987        -0.111014
 C        -1.658678        -0.804393        -0.979021
 C        -0.727854        -1.179929         0.212239
 O        -0.173003        -2.454926         0.394475
 C         0.343223         0.051052         0.134252
 O         1.569437        -0.003885         0.322143
 C        -0.641519         1.180596        -0.151474
 H        -3.553698        -1.935855         0.739253
 H        -2.348273        -2.267330         2.057893
 H        -3.589263        -1.135813         2.352925
 H        -1.428662        -0.188558         2.158222
 H        -2.916937         0.953067        -0.248877
 H        -2.575986        -1.385828        -1.018023
 H        -1.234823        -0.651441        -1.977895
 H         0.758095        -2.275636         0.483856
 H        -0.307676         2.111194         0.418167
 H        -0.521266         1.360150        -1.215403
