19
Iteration:  3794charge 0 multiplicity 1
 C        -2.807219        -1.510445         1.699975
 C        -1.869824        -0.472962         1.076259
 C        -1.985628         0.393233        -0.226629
 C        -1.510510        -0.948820        -1.104123
 C        -0.669087        -1.143657         0.237914
 O        -0.250585        -2.428789         0.506176
 C         0.281805        -0.016369         0.151352
 O         1.485682         0.020198         0.412750
 C        -0.696255         1.214238        -0.205047
 H        -3.451206        -1.763250         0.767597
 H        -2.140862        -2.330122         2.206942
 H        -3.461647        -1.082724         2.511431
 H        -1.290632         0.090890         1.936935
 H        -2.896379         0.804501        -0.617038
 H        -2.283860        -1.661608        -1.161088
 H        -1.103716        -0.701545        -2.158569
 H         0.710316        -2.452535         0.238237
 H        -0.460518         1.998164         0.464588
 H        -0.445833         1.569336        -1.298724
