19
Iteration:  4660
 C        -3.044918        -1.526925         1.474076
 C        -1.806765        -0.535825         1.156738
 C        -1.967104         0.414074        -0.145450
 C        -1.601026        -0.829087        -0.964668
 C        -0.664660        -1.150544         0.372859
 O        -0.054942        -2.425416         0.597136
 C         0.278266        -0.015108         0.099782
 O         1.501110        -0.047469         0.170110
 C        -0.640568         1.198380        -0.215425
 H        -3.090691        -2.158146         0.643080
 H        -2.751044        -2.330641         2.196142
 H        -3.868492        -0.934194         1.890145
 H        -1.485599         0.052755         1.963008
 H        -2.882818         1.084494        -0.223640
 H        -2.455079        -1.520909        -1.125727
 H        -1.110518        -0.582904        -1.817557
 H         0.857455        -2.282551         0.477839
 H        -0.683668         1.945086         0.663785
 H        -0.439582         1.745039        -1.135206
