19
Iteration:  4693charge 0 multiplicity 1
 C        -3.115287        -1.421504         1.500391
 C        -1.803998        -0.516755         1.154748
 C        -1.993276         0.331439        -0.110166
 C        -1.530716        -0.881552        -0.966523
 C        -0.580693        -1.188342         0.300955
 O        -0.008923        -2.317366         0.569946
 C         0.255955        -0.001808         0.112661
 O         1.469694        -0.106074         0.093732
 C        -0.684231         1.158578        -0.052804
 H        -3.275256        -1.918210         0.592016
 H        -3.051806        -2.100117         2.374220
 H        -4.094837        -0.905724         1.473775
 H        -1.257333        -0.082847         1.928717
 H        -2.924959         0.965858        -0.282439
 H        -2.224139        -1.691237        -1.227274
 H        -1.152441        -0.717103        -1.852704
 H         1.015355        -2.028705         0.460475
 H        -0.736213         1.965771         0.773885
 H        -0.375000         1.638106        -0.987497
