19
Iteration:    45
 C        -2.848353        -1.577471         1.517437
 C        -1.710849        -0.574504         1.195344
 C        -1.959469         0.438789        -0.016306
 C        -1.699821        -0.829485        -0.959603
 C        -0.705600        -1.096644         0.186492
 O        -0.328184        -2.469677         0.329195
 C         0.324944         0.063826         0.128908
 O         1.529997         0.026739         0.335868
 C        -0.583134         1.174412        -0.191501
 H        -2.330053        -2.546785         1.582256
 H        -3.241756        -1.327401         2.498352
 H        -3.623702        -1.582580         0.802825
 H        -1.240929        -0.314497         2.145390
 H        -2.777270         1.093630        -0.084334
 H        -2.368911        -1.578033        -0.704188
 H        -1.433740        -0.822882        -2.038897
 H         0.591727        -2.439389         0.760052
 H        -0.364446         2.036252         0.430073
 H        -0.393926         1.500579        -1.225037
