19
Iteration:  3836charge 0 multiplicity 1
 C        -3.001612        -1.479113         1.438992
 C        -1.774950        -0.566152         1.123462
 C        -1.975697         0.435060        -0.149630
 C        -1.567167        -0.885710        -1.004474
 C        -0.645457        -1.223077         0.271608
 O        -0.157267        -2.450920         0.675337
 C         0.277290         0.001708         0.137032
 O         1.508752         0.056876         0.129164
 C        -0.632679         1.216027        -0.112404
 H        -3.369122        -1.897385         0.495442
 H        -2.535461        -2.335942         2.067729
 H        -3.887419        -0.962034         1.854687
 H        -1.586616        -0.010586         2.102789
 H        -2.932493         0.996552        -0.141083
 H        -2.360749        -1.576360        -0.951658
 H        -1.089604        -1.135005        -1.915660
 H         0.848507        -2.379926         0.753067
 H        -0.621766         1.997710         0.663104
 H        -0.379778         1.739500        -1.114151
