19
Iteration:  1426charge 0 multiplicity 1
 C        -2.964070        -1.316514         1.776836
 C        -1.781351        -0.579457         1.148332
 C        -2.001725         0.323117        -0.204646
 C        -1.449596        -0.813855        -1.164601
 C        -0.673213        -1.198174         0.202814
 O        -0.121920        -2.470064         0.320327
 C         0.239111        -0.011480         0.301265
 O         1.479096        -0.055774         0.233731
 C        -0.742953         1.170278        -0.061280
 H        -3.649028        -1.737530         0.927257
 H        -2.563138        -2.041600         2.503052
 H        -3.521857        -0.516547         2.331968
 H        -1.275545         0.142495         1.870197
 H        -3.063441         0.518511        -0.437686
 H        -2.156071        -1.590255        -1.456441
 H        -0.756895        -0.419220        -1.913557
 H         0.855545        -2.385083         0.393257
 H        -0.767556         1.764924         0.920023
 H        -0.469023         1.897084        -0.853358
