19
Iteration:  1783charge 0 multiplicity 1
 C        -2.922588        -1.339011         1.756441
 C        -1.800357        -0.462003         1.183394
 C        -1.985032         0.375303        -0.212034
 C        -1.665193        -0.962474        -1.109781
 C        -0.677924        -1.221634         0.082962
 O        -0.037233        -2.476494         0.183871
 C         0.255539         0.009542         0.262249
 O         1.478450        -0.046726         0.441150
 C        -0.670764         1.187493        -0.061657
 H        -3.451603        -1.994541         1.170341
 H        -2.573220        -1.962296         2.647095
 H        -3.701758        -0.623678         2.118288
 H        -1.208309         0.128410         1.996576
 H        -2.921304         0.901782        -0.329818
 H        -2.506022        -1.709253        -1.199917
 H        -1.197185        -0.742203        -2.128474
 H         0.980557        -2.311120         0.323993
 H        -0.632032         1.940310         0.742868
 H        -0.387680         1.805304        -1.025072
