19
Iteration:  1808charge 0 multiplicity 1
 C        -2.845228        -1.302416         1.701742
 C        -1.690149        -0.577241         1.071924
 C        -2.000903         0.366312        -0.209070
 C        -1.513010        -0.812955        -1.083378
 C        -0.654657        -1.220275         0.158749
 O        -0.134644        -2.521473         0.313200
 C         0.214808         0.017993         0.063045
 O         1.387823        -0.031456         0.410297
 C        -0.746095         1.158159         0.007017
 H        -3.621186        -1.889023         1.163681
 H        -2.472930        -2.036407         2.313174
 H        -3.335092        -0.481426         2.323112
 H        -1.090276        -0.091291         1.919774
 H        -3.065717         0.701700        -0.321042
 H        -2.384597        -1.463873        -1.169234
 H        -1.070392        -0.544812        -2.049714
 H         0.774454        -2.475034         0.697967
 H        -0.537790         1.815016         0.937434
 H        -0.563848         1.864693        -0.779956
