19
Iteration:  1689
 C        -2.872926        -1.585119         1.709873
 C        -1.851306        -0.512188         1.136434
 C        -1.962747         0.370439        -0.199339
 C        -1.529064        -0.808999        -1.040172
 C        -0.685505        -1.145895         0.206164
 O        -0.253863        -2.428104         0.434770
 C         0.300315         0.013529         0.202990
 O         1.540502        -0.041026         0.193387
 C        -0.637603         1.223929        -0.083787
 H        -3.397470        -2.392383         0.952849
 H        -2.368580        -2.092630         2.512266
 H        -3.756574        -0.902822         1.992774
 H        -1.543804         0.027120         1.991457
 H        -2.782518         0.921973        -0.715851
 H        -2.416332        -1.422211        -1.146096
 H        -1.134182        -0.557369        -1.993447
 H         0.750019        -2.410082         0.295495
 H        -0.763888         1.829211         0.872850
 H        -0.442236         1.948916        -0.860678
