19
Iteration:  1781
 C        -2.929413        -1.340172         1.749867
 C        -1.794353        -0.463450         1.193868
 C        -2.005699         0.383458        -0.214444
 C        -1.667243        -0.953510        -1.103333
 C        -0.676382        -1.203526         0.095633
 O        -0.028838        -2.461833         0.176277
 C         0.272436         0.018978         0.260961
 O         1.478749        -0.052550         0.444742
 C        -0.655320         1.155832        -0.065753
 H        -3.519935        -2.049346         1.145991
 H        -2.587947        -1.945829         2.697931
 H        -3.734983        -0.700272         2.109112
 H        -1.226667         0.115815         1.966368
 H        -2.956567         0.868073        -0.347132
 H        -2.514447        -1.677794        -1.172557
 H        -1.279164        -0.736652        -2.146522
 H         0.962809        -2.334871         0.321387
 H        -0.639244         1.934624         0.677146
 H        -0.363672         1.694841        -1.053723
