19
Iteration:  3907
 C        -3.112559        -1.470281         1.490376
 C        -1.842331        -0.550924         1.161551
 C        -1.914896         0.377754        -0.140778
 C        -1.404841        -0.875269        -1.021510
 C        -0.726544        -1.163784         0.340821
 O         0.010718        -2.360654         0.575317
 C         0.222545         0.021005         0.177130
 O         1.422429        -0.059884         0.051753
 C        -0.661378         1.175829        -0.048491
 H        -3.405469        -2.259995         0.732044
 H        -3.001254        -1.885246         2.437712
 H        -4.002273        -0.819943         1.415032
 H        -1.488139        -0.066621         2.112113
 H        -2.911844         0.818710        -0.209183
 H        -2.284533        -1.623057        -1.114034
 H        -0.836559        -0.804843        -1.973037
 H         0.938653        -2.178116         0.499315
 H        -0.422610         1.965558         0.666488
 H        -0.369987         1.524891        -0.968578
