19
Iteration:   114
 C        -3.073767        -1.409824         1.806055
 C        -1.847883        -0.568118         1.184664
 C        -1.971964         0.403766        -0.151911
 C        -1.625717        -0.851639        -1.043822
 C        -0.660100        -1.209137         0.178635
 O         0.009003        -2.347031         0.154387
 C         0.324130         0.055548         0.219262
 O         1.498211        -0.176396         0.372207
 C        -0.643831         1.191075        -0.138966
 H        -2.830480        -2.439777         1.476345
 H        -2.950918        -1.496157         2.930949
 H        -4.008895        -0.995588         1.365001
 H        -1.427886        -0.116303         2.090227
 H        -2.901294         1.020961        -0.389982
 H        -2.522365        -1.566849        -0.787958
 H        -1.336662        -0.612673        -2.101649
 H         0.925820        -2.296171         0.224888
 H        -0.653145         2.110752         0.470543
 H        -0.549303         1.536417        -1.215439
