19
Iteration:   444charge 0 multiplicity 1
 C        -3.044504        -1.308812         1.633562
 C        -1.844556        -0.566635         1.156192
 C        -1.941572         0.323403        -0.122134
 C        -1.516250        -0.830012        -1.040314
 C        -0.615447        -1.208667         0.269567
 O        -0.021727        -2.460315         0.324856
 C         0.254848         0.025931         0.123723
 O         1.473738        -0.050950         0.243655
 C        -0.718440         1.143364        -0.030706
 H        -3.729339        -1.654489         0.840611
 H        -2.888724        -2.132810         2.319763
 H        -3.745095        -0.694182         2.263619
 H        -1.371066        -0.117683         2.078592
 H        -2.847965         0.820542        -0.332660
 H        -2.262417        -1.564215        -1.275355
 H        -0.933387        -0.487443        -2.013186
 H         0.917320        -2.361979         0.602043
 H        -0.857343         1.998964         0.683716
 H        -0.533244         1.539247        -1.006628
