19
Iteration:  2310charge 0 multiplicity 1
 C        -2.835556        -1.446022         1.735639
 C        -1.769590        -0.529697         1.149996
 C        -2.076113         0.373256        -0.060737
 C        -1.577382        -0.762677        -0.983493
 C        -0.690101        -1.208013         0.187637
 O        -0.156054        -2.489813         0.199344
 C         0.272020        -0.022116         0.180972
 O         1.459191        -0.056856         0.367706
 C        -0.639487         1.225892        -0.169928
 H        -3.045701        -2.310835         0.961762
 H        -2.625852        -1.755272         2.663239
 H        -3.735103        -0.817854         1.822230
 H        -1.266040         0.026239         1.978989
 H        -2.947833         1.030278        -0.264152
 H        -2.484434        -1.360114        -1.201425
 H        -1.163423        -0.575801        -1.964228
 H         0.760667        -2.473603         0.186908
 H        -0.356021         1.983754         0.570540
 H        -0.331716         1.540898        -1.168326
