19
Iteration:   424
 C        -3.041266        -1.389226         1.596044
 C        -1.725513        -0.578680         1.131196
 C        -2.060581         0.332658        -0.043810
 C        -1.651666        -0.844658        -1.038638
 C        -0.643487        -1.258200         0.077105
 O        -0.121884        -2.429675         0.439604
 C         0.345857         0.007352         0.098928
 O         1.563409         0.060563         0.387417
 C        -0.617968         1.166781        -0.156915
 H        -3.648942        -1.610447         0.672016
 H        -2.743691        -2.188956         2.277435
 H        -3.749840        -0.762736         2.180791
 H        -1.277005        -0.183927         2.068659
 H        -3.053292         0.761591        -0.075469
 H        -2.473472        -1.631505        -1.063724
 H        -1.245292        -0.750118        -2.142762
 H         0.768894        -2.504366         0.215752
 H        -0.509181         1.776695         0.756386
 H        -0.525917         1.881871        -0.947610
