19
Iteration:  4762charge 0 multiplicity 1
 C        -2.925037        -1.449831         1.558492
 C        -1.815221        -0.512378         1.118706
 C        -2.002472         0.384023        -0.115295
 C        -1.516122        -0.861037        -0.964330
 C        -0.627516        -1.140776         0.218689
 O        -0.135976        -2.462843         0.558400
 C         0.284420        -0.032392         0.084357
 O         1.478336        -0.021850         0.279667
 C        -0.730957         1.216812        -0.158532
 H        -3.424355        -1.886867         0.684446
 H        -2.453206        -2.191849         2.226229
 H        -3.782984        -0.959087         2.080885
 H        -1.399325         0.024994         1.911799
 H        -2.985409         0.765942        -0.305728
 H        -2.130624        -1.696907        -1.363107
 H        -1.091471        -0.639574        -1.905970
 H         0.774001        -2.433737         0.383940
 H        -0.504457         2.220212         0.350398
 H        -0.621286         1.413047        -1.228309
