19
Iteration:   193
 C        -2.877451        -1.627512         1.649867
 C        -1.820042        -0.477470         1.156756
 C        -2.011625         0.428114        -0.181268
 C        -1.570250        -0.671132        -1.126787
 C        -0.682038        -1.146280         0.274436
 O        -0.228213        -2.447417         0.510600
 C         0.323464        -0.038111         0.165827
 O         1.541819        -0.014785         0.183308
 C        -0.645415         1.115101        -0.080174
 H        -3.436879        -2.102772         0.839625
 H        -2.347053        -2.305434         2.301412
 H        -3.731012        -1.216408         2.310232
 H        -1.653058         0.120632         2.051509
 H        -2.871834         1.137839        -0.176317
 H        -2.285404        -1.448838        -1.320694
 H        -0.937623        -0.556206        -2.030530
 H         0.611233        -2.478132        -0.055166
 H        -0.676554         1.791300         0.851864
 H        -0.424928         1.575861        -1.038106
