19
Iteration:  4848charge 0 multiplicity 1
 C        -2.888764        -1.342205         1.723902
 C        -1.791258        -0.510135         1.091314
 C        -1.977011         0.360260        -0.117288
 C        -1.524809        -0.940852        -1.082938
 C        -0.664026        -1.239997         0.125371
 O        -0.074152        -2.363992         0.365091
 C         0.208482         0.009926         0.177178
 O         1.391821        -0.008738         0.436264
 C        -0.667525         1.104331        -0.223519
 H        -3.486761        -1.872506         0.955022
 H        -2.583467        -2.168622         2.409545
 H        -3.675930        -0.694389         2.221385
 H        -1.324021         0.072154         2.034147
 H        -2.957871         0.896611        -0.214793
 H        -2.446187        -1.829477        -1.198878
 H        -1.012690        -0.766822        -2.008699
 H         0.912193        -2.301156         0.445961
 H        -0.467946         1.945474         0.523890
 H        -0.518067         1.501096        -1.177463
