19
Iteration:  3745charge 0 multiplicity 1
 C        -2.877759        -1.351486         1.632499
 C        -1.742428        -0.464833         1.155625
 C        -1.970381         0.296029        -0.084891
 C        -1.694809        -0.936812        -0.997207
 C        -0.597274        -1.186677         0.048697
 O        -0.056298        -2.389116         0.358753
 C         0.280903         0.008325         0.039064
 O         1.358899        -0.069440         0.614297
 C        -0.675686         1.136137        -0.294554
 H        -3.264397        -1.886761         0.814117
 H        -2.521832        -1.919842         2.481646
 H        -3.723888        -0.746684         1.986647
 H        -1.290083         0.188219         1.913020
 H        -2.907515         0.847242        -0.301424
 H        -2.545095        -1.673997        -1.137864
 H        -1.222101        -0.870929        -1.925125
 H         0.840346        -2.022671         0.697187
 H        -0.615947         2.091980         0.343594
 H        -0.398489         1.430883        -1.285967
