19
Iteration:   468
 C        -3.008753        -1.382845         1.592757
 C        -1.920985        -0.507480         1.158075
 C        -1.963822         0.402440        -0.165178
 C        -1.516140        -0.963405        -0.945088
 C        -0.651859        -1.183676         0.248286
 O         0.041927        -2.390757         0.306184
 C         0.233738        -0.015319         0.271045
 O         1.422648        -0.129577         0.094513
 C        -0.641006         1.267537         0.020177
 H        -3.626671        -1.908222         0.802607
 H        -2.934362        -2.046417         2.440972
 H        -3.834043        -0.832599         2.052190
 H        -1.557558         0.072885         2.037890
 H        -2.914984         0.823201        -0.487741
 H        -2.224230        -1.848764        -1.209207
 H        -0.869760        -0.662228        -1.854244
 H         0.852069        -2.221394         0.764930
 H        -0.648493         1.958555         0.873606
 H        -0.181398         1.693995        -0.862968
