19
Iteration:  4869
 C        -2.986933        -1.353000         1.665754
 C        -1.792868        -0.554381         1.147023
 C        -2.016465         0.346660        -0.205880
 C        -1.653738        -0.877310        -1.041947
 C        -0.664639        -1.244110         0.200198
 O        -0.025028        -2.491510         0.374686
 C         0.318505         0.045080         0.082375
 O         1.510762         0.038395         0.426734
 C        -0.688356         1.155978        -0.197943
 H        -3.505438        -1.991332         0.977484
 H        -2.663176        -2.012827         2.521758
 H        -3.678757        -0.539449         2.055032
 H        -1.230054        -0.098227         2.108593
 H        -3.045792         0.769514        -0.476673
 H        -2.563739        -1.671599        -0.949414
 H        -1.216983        -0.725554        -1.986121
 H         0.905983        -2.171344         0.700345
 H        -0.674249         1.924933         0.634256
 H        -0.416384         1.649662        -1.066648
