19
Iteration:  2124charge 0 multiplicity 1
 C        -2.970312        -1.487006         1.513728
 C        -1.781994        -0.551868         1.196609
 C        -1.985948         0.429087        -0.015291
 C        -1.720218        -0.799266        -0.865402
 C        -0.619110        -1.188095         0.228069
 O        -0.052085        -2.415650         0.327888
 C         0.268603        -0.013950         0.137706
 O         1.491406        -0.071427         0.254663
 C        -0.639339         1.183364        -0.177458
 H        -3.813295        -1.291360         0.736392
 H        -2.761976        -2.508825         1.507938
 H        -3.430481        -1.285309         2.520785
 H        -1.299398        -0.024010         2.074381
 H        -2.943273         1.001743         0.044344
 H        -2.551146        -1.493993        -1.031128
 H        -1.135079        -0.644815        -1.790077
 H         0.875654        -2.231375         0.298794
 H        -0.349728         2.042881         0.418869
 H        -0.374240         1.472228        -1.177144
