19
Iteration:  3594
 C        -2.990887        -1.475208         1.254446
 C        -1.855821        -0.554020         1.181421
 C        -1.891582         0.390852        -0.075160
 C        -1.560355        -0.880331        -0.947192
 C        -0.666651        -1.180113         0.351702
 O        -0.073393        -2.352475         0.746557
 C         0.255822         0.020235         0.129401
 O         1.450057        -0.071498        -0.002380
 C        -0.659461         1.187721        -0.096839
 H        -3.532747        -1.754464         0.450726
 H        -2.553034        -2.449048         1.574174
 H        -3.556206        -1.059402         2.097939
 H        -1.555856        -0.064911         2.067531
 H        -2.837062         0.966263        -0.066237
 H        -2.347603        -1.668868        -1.045503
 H        -1.050691        -0.743531        -1.839738
 H         0.859659        -2.027388         0.709500
 H        -0.758050         1.896203         0.720961
 H        -0.402738         1.692881        -1.008026
