19
Iteration:     7
 C        -2.856746        -1.455691         1.538643
 C        -1.831494        -0.560829         1.207892
 C        -2.011105         0.458814        -0.002321
 C        -1.641896        -0.749776        -0.984023
 C        -0.713296        -1.148512         0.240394
 O        -0.126106        -2.486405         0.320983
 C         0.287269        -0.004785         0.110971
 O         1.518313        -0.087971         0.237470
 C        -0.630038         1.173764        -0.109592
 H        -2.500214        -2.293453         2.183500
 H        -3.640417        -1.077436         2.235473
 H        -3.331723        -1.960440         0.654050
 H        -1.411954        -0.086425         2.132163
 H        -2.976477         1.041480        -0.148530
 H        -2.418297        -1.585841        -0.950998
 H        -1.180228        -0.556067        -1.980220
 H         0.871110        -2.229626         0.335825
 H        -0.640819         1.879032         0.816483
 H        -0.413929         1.614848        -1.101461
