19
Iteration:  4545charge 0 multiplicity 1
 C        -2.901374        -1.313640         1.561675
 C        -1.736506        -0.511769         1.175819
 C        -2.014699         0.397556        -0.106806
 C        -1.738201        -1.015307        -0.990635
 C        -0.635493        -1.235777         0.217926
 O         0.001163        -2.433025         0.300584
 C         0.283773         0.010372         0.016304
 O         1.392035        -0.039236         0.551028
 C        -0.604743         1.198229        -0.271513
 H        -3.330564        -2.003996         0.842623
 H        -2.709944        -2.005808         2.396568
 H        -3.520319        -0.537632         1.982345
 H        -1.438754         0.013243         2.093071
 H        -2.923154         0.945136        -0.247490
 H        -2.568892        -1.718173        -0.915096
 H        -1.446016        -0.964134        -2.002441
 H         0.858124        -2.087654         0.804757
 H        -0.537736         1.924282         0.530457
 H        -0.637991         1.744380        -1.205102
