19
Iteration:   490charge 0 multiplicity 1
 C        -3.044549        -1.432120         1.503068
 C        -1.866092        -0.543665         1.155593
 C        -1.952521         0.370167        -0.095340
 C        -1.584262        -0.811970        -0.962425
 C        -0.695175        -1.164905         0.255238
 O        -0.034430        -2.379571         0.486228
 C         0.336206        -0.018226         0.106507
 O         1.566475        -0.099480         0.122674
 C        -0.701618         1.176755        -0.032951
 H        -3.340077        -2.218180         0.739558
 H        -2.814845        -1.996104         2.422843
 H        -3.986786        -1.044839         1.845733
 H        -1.539836         0.101473         1.990149
 H        -2.906055         0.908226        -0.256869
 H        -2.530697        -1.492826        -0.941645
 H        -1.160071        -0.792764        -2.016850
 H         0.887444        -2.106117         0.291270
 H        -0.540641         1.566445         0.967889
 H        -0.611901         1.939524        -0.805376
