19
Iteration:  1756
 C        -2.934288        -1.434842         1.610186
 C        -1.830646        -0.530514         1.192018
 C        -1.945185         0.436293        -0.002011
 C        -1.707176        -0.875518        -0.906483
 C        -0.698336        -1.180248         0.161031
 O        -0.004125        -2.368306         0.183648
 C         0.300248        -0.021495         0.165544
 O         1.463389        -0.108033         0.496616
 C        -0.627960         1.165666        -0.347685
 H        -3.440112        -2.304079         0.974031
 H        -2.704326        -1.844723         2.592661
 H        -3.843805        -0.823548         1.749235
 H        -1.402204        -0.057005         2.016186
 H        -2.894178         1.025203        -0.055076
 H        -2.450778        -1.645679        -1.017441
 H        -1.261997        -0.637817        -1.857671
 H         0.932927        -2.190286         0.545458
 H        -0.334050         2.069374         0.219722
 H        -0.760256         1.429267        -1.382856
