19
Iteration:     3
 C        -2.887914        -1.468309         1.561838
 C        -1.789004        -0.562256         1.184845
 C        -1.991539         0.433939        -0.023187
 C        -1.650939        -0.769685        -0.988638
 C        -0.697490        -1.165008         0.204200
 O        -0.121211        -2.440382         0.334960
 C         0.284083        -0.010469         0.121797
 O         1.491830        -0.100255         0.225232
 C        -0.635778         1.195318        -0.060926
 H        -2.542315        -2.256857         2.219445
 H        -3.659493        -0.976507         2.168396
 H        -3.350007        -1.948382         0.737359
 H        -1.377952        -0.098504         2.068220
 H        -2.882275         0.977535        -0.139575
 H        -2.414121        -1.481675        -1.037008
 H        -1.208768        -0.556506        -1.946384
 H         0.809695        -2.255181         0.379497
 H        -0.587298         1.836899         0.740946
 H        -0.430018         1.678162        -1.017937
