19
Iteration:  2498charge 0 multiplicity 1
 C        -2.964045        -1.542237         1.479552
 C        -1.844575        -0.545454         1.173495
 C        -1.984903         0.457680        -0.119008
 C        -1.549749        -0.778868        -0.984414
 C        -0.674767        -1.172276         0.273573
 O        -0.128258        -2.395963         0.590984
 C         0.279138         0.006049         0.162179
 O         1.482319        -0.093333         0.059633
 C        -0.645138         1.184358        -0.066988
 H        -3.100823        -1.553781         2.645088
 H        -3.879460        -1.293252         1.017572
 H        -2.642604        -2.523625         1.187902
 H        -1.438346        -0.187842         2.061452
 H        -2.870895         1.065298        -0.397087
 H        -2.186252        -1.655129        -1.145170
 H        -1.194530        -0.629629        -2.011571
 H         0.866496        -2.134272         0.494759
 H        -0.398847         1.847236         0.830391
 H        -0.350265         1.696669        -0.974097
