19
Iteration:  3446charge 0 multiplicity 1
 C        -2.743093        -1.409967         1.634405
 C        -1.775125        -0.419950         1.203651
 C        -1.952457         0.333627        -0.234413
 C        -1.638409        -0.871257        -1.071213
 C        -0.631331        -1.217908         0.123905
 O        -0.196316        -2.446286         0.391540
 C         0.264228        -0.039166         0.162170
 O         1.395050         0.040471         0.554459
 C        -0.656749         1.116359        -0.271539
 H        -2.563027        -2.376242         1.009508
 H        -2.704977        -1.503686         2.651314
 H        -3.778368        -1.125488         1.578371
 H        -1.446938         0.306145         1.977012
 H        -2.888655         0.894895        -0.221172
 H        -2.434385        -1.618019        -0.959290
 H        -1.459079        -0.867543        -2.135734
 H         0.816676        -2.399647         0.425027
 H        -0.815436         1.959521         0.448076
 H        -0.447941         1.436898        -1.326691
