19
Iteration:  2419charge 0 multiplicity 1
 C        -2.995347        -1.432907         1.596310
 C        -1.786280        -0.574468         1.147483
 C        -2.019701         0.359904        -0.102698
 C        -1.639394        -0.783874        -1.042970
 C        -0.664971        -1.230846         0.162623
 O        -0.024915        -2.368671         0.468623
 C         0.271059        -0.060590         0.098032
 O         1.510004        -0.125482         0.173309
 C        -0.657277         1.278625         0.008494
 H        -4.079657        -1.014063         1.368218
 H        -3.093515        -2.341040         1.111291
 H        -2.993999        -1.711633         2.661547
 H        -1.468203         0.045300         1.934700
 H        -3.020516         0.878394        -0.118075
 H        -2.401568        -1.571903        -1.123399
 H        -1.069512        -0.608831        -1.927584
 H         0.950332        -2.140255         0.489464
 H        -0.546140         1.940598         0.937365
 H        -0.267191         1.868615        -0.877360
