19
Iteration:  3099charge 0 multiplicity 1
 C        -2.995586        -1.505557         1.578679
 C        -1.884516        -0.514424         1.170272
 C        -1.961339         0.338909        -0.293007
 C        -1.641517        -0.973953        -0.897504
 C        -0.701219        -1.116999         0.274344
 O        -0.105066        -2.393314         0.435830
 C         0.358170         0.054873         0.237317
 O         1.561725         0.072323         0.310758
 C        -0.620050         1.142739        -0.236026
 H        -3.755009        -1.436472         0.840777
 H        -2.659319        -2.529491         1.708062
 H        -3.538365        -1.354603         2.539286
 H        -1.621156         0.142151         2.021649
 H        -2.807848         0.884362        -0.698797
 H        -2.477494        -1.726070        -0.823294
 H        -1.305907        -0.944938        -1.952955
 H         0.901685        -2.322962         0.266693
 H        -0.384642         1.916543         0.500101
 H        -0.437030         1.520120        -1.210999
