19
Iteration:  3013charge 0 multiplicity 1
 C        -3.121224        -1.567340         1.367529
 C        -1.937539        -0.453328         1.245781
 C        -1.934115         0.396623        -0.275935
 C        -1.516414        -0.969101        -0.834215
 C        -0.607206        -1.138049         0.445967
 O        -0.147948        -2.402510         0.673453
 C         0.368281         0.049180         0.186447
 O         1.600598         0.030245        -0.069153
 C        -0.679272         1.183998        -0.136298
 H        -4.089209        -1.198740         1.072633
 H        -2.760500        -2.525393         0.844248
 H        -3.176239        -1.900794         2.467065
 H        -1.771690         0.117988         2.139120
 H        -2.918690         0.792577        -0.418036
 H        -2.251546        -1.797457        -0.999089
 H        -0.950902        -0.940023        -1.760245
 H         0.781126        -2.211334         0.392392
 H        -0.668493         1.923615         0.762492
 H        -0.436578         1.791771        -1.019982
