19
Iteration:  3399charge 0 multiplicity 1
 C        -3.055936        -1.381388         1.623842
 C        -1.800994        -0.516408         1.089925
 C        -2.017546         0.336394        -0.173361
 C        -1.566741        -0.904374        -1.013981
 C        -0.587913        -1.213977         0.284961
 O        -0.012913        -2.436660         0.389336
 C         0.241652        -0.022793         0.162989
 O         1.455222         0.046612         0.295638
 C        -0.665234         1.133118        -0.124068
 H        -3.591990        -1.796670         0.843924
 H        -2.885246        -2.005429         2.499158
 H        -3.620836        -0.599016         2.089866
 H        -1.412340         0.206487         1.906802
 H        -2.948751         0.741637        -0.517025
 H        -2.341167        -1.700339        -1.307268
 H        -1.011620        -0.720431        -1.967052
 H         0.822688        -2.276353         0.945605
 H        -0.381819         1.821407         0.632541
 H        -0.406903         1.514108        -1.151421
