19
Iteration:  4951charge 0 multiplicity 1
 C        -2.921734        -1.585255         1.539932
 C        -1.825877        -0.540361         1.061289
 C        -1.976705         0.443998        -0.193829
 C        -1.603248        -0.796274        -1.004270
 C        -0.711001        -1.155250         0.293705
 O        -0.092476        -2.298052         0.660008
 C         0.263826        -0.023294         0.158871
 O         1.489525        -0.094114         0.094589
 C        -0.626475         1.164300        -0.083810
 H        -3.433576        -2.156710         0.649744
 H        -2.666811        -2.294344         2.335545
 H        -3.782744        -1.048876         1.913096
 H        -1.530863        -0.081077         2.008478
 H        -2.936003         0.891992        -0.392036
 H        -2.231060        -1.647721        -1.022358
 H        -1.043657        -0.824170        -2.012510
 H         0.931101        -2.151068         0.575945
 H        -0.651315         1.829219         0.775356
 H        -0.328328         1.780758        -1.026829
