19
Iteration:  1998charge 0 multiplicity 1
 C        -2.929333        -1.590405         1.470611
 C        -1.676817        -0.572461         1.175168
 C        -1.973244         0.510842        -0.095858
 C        -1.829016        -0.707611        -0.969270
 C        -0.677574        -1.162554         0.252643
 O        -0.099645        -2.429074         0.452562
 C         0.304539        -0.035215         0.092865
 O         1.516491        -0.067689         0.278972
 C        -0.618169         1.190202        -0.165306
 H        -2.943171        -2.454476         0.800265
 H        -2.693979        -2.117579         2.462563
 H        -3.899266        -1.210399         1.608100
 H        -1.187440         0.030746         2.042803
 H        -2.933306         0.990831        -0.031542
 H        -2.677667        -1.395584        -0.878516
 H        -1.361267        -0.735915        -1.929883
 H         0.731074        -2.163573         0.791993
 H        -0.556940         1.929999         0.637286
 H        -0.484610         1.595547        -1.201037
