19
Iteration:   180charge 0 multiplicity 1
 C        -2.898441        -1.510880         1.577780
 C        -1.829041        -0.597495         1.123038
 C        -1.949969         0.363018        -0.036579
 C        -1.630283        -0.761732        -1.042533
 C        -0.645504        -1.161698         0.222440
 O        -0.247749        -2.439101         0.478239
 C         0.332002         0.010241         0.110808
 O         1.576971         0.003604         0.250561
 C        -0.677463         1.199242        -0.090804
 H        -3.188476        -2.203209         0.773138
 H        -2.499662        -2.233039         2.331741
 H        -3.753145        -0.888696         1.999204
 H        -1.286370        -0.119394         1.956876
 H        -2.916740         0.908230        -0.313793
 H        -2.518042        -1.529494        -1.107658
 H        -1.203135        -0.433439        -2.050715
 H         0.602042        -2.692746         0.078716
 H        -0.477955         2.108641         0.536266
 H        -0.576682         1.677738        -1.089263
