19
Iteration:   107charge 0 multiplicity 1
 C        -2.986972        -1.406570         1.792028
 C        -1.855258        -0.617165         1.149386
 C        -1.940600         0.327762        -0.193039
 C        -1.606419        -0.817581        -0.989393
 C        -0.749694        -1.180887         0.173364
 O        -0.023286        -2.353262         0.162397
 C         0.304975         0.092933         0.230757
 O         1.494422        -0.198012         0.376422
 C        -0.634346         1.211239        -0.123536
 H        -2.960430        -2.491739         1.635092
 H        -2.903846        -1.159835         2.842411
 H        -4.066548        -1.098337         1.622471
 H        -1.344806        -0.041507         1.951468
 H        -2.899570         0.829402        -0.455802
 H        -2.470964        -1.470471        -1.097015
 H        -1.288361        -0.793013        -2.017027
 H         0.947823        -2.005820         0.085348
 H        -0.655965         2.144698         0.538521
 H        -0.407001         1.696388        -1.065592
