19
Iteration:     2charge 0 multiplicity 1
 C        -2.897298        -1.472714         1.569648
 C        -1.776796        -0.559928         1.177619
 C        -1.984132         0.425173        -0.029024
 C        -1.652241        -0.772726        -0.986655
 C        -0.693000        -1.169756         0.195235
 O        -0.121647        -2.428852         0.338059
 C         0.282965        -0.012443         0.125450
 O         1.485749        -0.102907         0.222247
 C        -0.638542         1.197482        -0.052009
 H        -2.540089        -2.258555         2.229660
 H        -3.665438        -0.945814         2.144706
 H        -3.369147        -1.955475         0.736951
 H        -1.362660        -0.094149         2.065700
 H        -2.884117         0.980124        -0.139911
 H        -2.438922        -1.478116        -1.067545
 H        -1.211399        -0.555210        -1.950775
 H         0.814844        -2.263229         0.391301
 H        -0.560813         1.866810         0.755670
 H        -0.435022         1.701414        -0.998630
