19
Iteration:  3008charge 0 multiplicity 1
 C        -3.058638        -1.562592         1.369187
 C        -1.890699        -0.466734         1.183510
 C        -1.933176         0.348221        -0.198387
 C        -1.493141        -0.982689        -0.855502
 C        -0.624731        -1.153814         0.493850
 O        -0.194546        -2.410770         0.640475
 C         0.356635         0.095284         0.253144
 O         1.540670         0.031577        -0.071334
 C        -0.639898         1.234039        -0.186468
 H        -4.099344        -1.164538         1.171168
 H        -2.828543        -2.446299         0.844331
 H        -3.162078        -1.889941         2.357749
 H        -1.823005         0.222023         2.095582
 H        -2.935758         0.784882        -0.440319
 H        -2.197515        -1.799955        -0.988856
 H        -0.940199        -0.920345        -1.829900
 H         0.818012        -2.389988         0.567794
 H        -0.634471         1.851748         0.652857
 H        -0.462904         1.798643        -1.107404
