19
Iteration:  3244charge 0 multiplicity 1
 C        -3.026011        -1.332126         1.533260
 C        -1.731730        -0.628728         1.177507
 C        -1.997284         0.288718        -0.067487
 C        -1.600216        -0.948041        -1.021316
 C        -0.677903        -1.242674         0.116439
 O        -0.083059        -2.399714         0.546818
 C         0.278032         0.015786         0.078158
 O         1.509958         0.067435         0.274652
 C        -0.650848         1.214807        -0.157042
 H        -3.490949        -1.998487         0.813031
 H        -2.864127        -2.067168         2.425103
 H        -3.880751        -0.658893         1.789732
 H        -1.459383        -0.121891         2.171725
 H        -2.955769         0.922338        -0.097108
 H        -2.309719        -1.753735        -1.170078
 H        -1.198546        -0.607603        -2.047068
 H         0.891714        -2.290305         0.830071
 H        -0.275186         1.966958         0.557636
 H        -0.547794         1.625915        -1.191129
