19
Iteration:  3096charge 0 multiplicity 1
 C        -3.000807        -1.499332         1.587601
 C        -1.894325        -0.531168         1.168116
 C        -1.977903         0.359298        -0.279669
 C        -1.639468        -0.975392        -0.918075
 C        -0.695767        -1.116869         0.311631
 O        -0.086619        -2.379039         0.441150
 C         0.350305         0.047924         0.214148
 O         1.561071         0.056058         0.302291
 C        -0.614780         1.129661        -0.238860
 H        -3.812164        -1.474420         0.776133
 H        -2.683072        -2.497397         1.571657
 H        -3.460391        -1.286389         2.527152
 H        -1.637427         0.106311         2.058941
 H        -2.795547         0.932741        -0.681561
 H        -2.423041        -1.765158        -0.803570
 H        -1.206599        -0.922328        -1.921487
 H         0.859494        -2.270388         0.270027
 H        -0.474990         1.881522         0.512222
 H        -0.415803         1.612372        -1.197931
