19
Iteration:  3946
 C        -2.903637        -1.514226         1.483046
 C        -1.720487        -0.511093         1.115931
 C        -1.976490         0.421344        -0.136185
 C        -1.629320        -0.973077        -1.034107
 C        -0.629739        -1.165121         0.293753
 O        -0.236463        -2.426536         0.556848
 C         0.330457         0.018787         0.092041
 O         1.530247         0.065149         0.285686
 C        -0.682747         1.167790        -0.143577
 H        -3.395941        -2.233004         0.732064
 H        -2.597092        -2.349938         2.212107
 H        -3.790041        -0.924262         1.807229
 H        -1.374036         0.193607         1.926009
 H        -2.851908         0.989169        -0.441897
 H        -2.481122        -1.558913        -0.934956
 H        -1.324638        -0.940599        -2.082008
 H         0.700556        -2.288897         0.806427
 H        -0.711853         1.853771         0.721563
 H        -0.463126         1.824721        -1.134592
