19
Iteration:   301
 C        -3.053402        -1.345600         1.519357
 C        -1.769693        -0.593193         1.178710
 C        -1.943430         0.314766         0.014359
 C        -1.595532        -0.893259        -0.968121
 C        -0.621715        -1.188677         0.211471
 O        -0.107481        -2.440829         0.357288
 C         0.362524         0.027923         0.161093
 O         1.550733         0.014934         0.287927
 C        -0.756689         1.160496        -0.127815
 H        -3.582992        -1.750249         0.635927
 H        -2.997531        -2.102321         2.323249
 H        -3.748301        -0.482892         1.871080
 H        -1.367627        -0.292007         2.173868
 H        -2.872436         0.877366        -0.037839
 H        -2.439595        -1.586312        -1.141920
 H        -0.988046        -0.696358        -1.974015
 H         0.706786        -2.455043        -0.287989
 H        -0.644644         2.086927         0.524915
 H        -0.749625         1.537080        -1.134370
