19
Iteration:  3261
 C        -2.990392        -1.426729         1.501857
 C        -1.812285        -0.541608         1.089530
 C        -1.938162         0.378996        -0.131441
 C        -1.590113        -0.850193        -0.984414
 C        -0.632069        -1.213196         0.307536
 O        -0.081992        -2.475102         0.622239
 C         0.265451         0.006372         0.094467
 O         1.498582         0.074147         0.167305
 C        -0.690906         1.129567        -0.115296
 H        -3.467683        -1.805379         0.563075
 H        -2.777297        -2.226395         2.171329
 H        -3.638819        -0.792393         2.119649
 H        -1.435266        -0.053935         1.988942
 H        -2.900982         0.830199        -0.321215
 H        -2.468055        -1.514037        -1.092101
 H        -1.098361        -0.843938        -1.940522
 H         0.833470        -2.497102         0.247945
 H        -0.755365         1.933892         0.645434
 H        -0.426839         1.700408        -1.017833
