19
Iteration:  2602charge 0 multiplicity 1
 C        -2.906209        -1.299665         1.610754
 C        -1.780060        -0.494668         1.133312
 C        -2.013270         0.321262        -0.166871
 C        -1.689628        -1.012802        -0.980521
 C        -0.638894        -1.228402         0.107957
 O        -0.111828        -2.500970         0.280129
 C         0.325080         0.075011         0.150806
 O         1.513756         0.094987         0.483212
 C        -0.673847         1.130737        -0.159606
 H        -2.760065        -2.356904         1.402107
 H        -3.227751        -1.095906         2.724360
 H        -3.749981        -0.939046         0.962160
 H        -1.192574        -0.054680         1.982687
 H        -3.013152         0.822150        -0.271246
 H        -2.518142        -1.725661        -0.816217
 H        -1.132232        -1.099978        -1.931300
 H         0.720520        -2.340789         0.917446
 H        -0.779396         1.778429         0.691533
 H        -0.388490         1.725039        -1.089580
