19
Iteration:  3915charge 0 multiplicity 1
 C        -3.110223        -1.470342         1.476468
 C        -1.831580        -0.506190         1.107423
 C        -1.986534         0.418048        -0.069056
 C        -1.475943        -0.941782        -0.995930
 C        -0.629077        -1.209285         0.275324
 O        -0.045066        -2.375134         0.587023
 C         0.257290        -0.006767         0.168407
 O         1.477399        -0.019942         0.081015
 C        -0.662543         1.167616        -0.060158
 H        -3.142496        -2.277703         0.638448
 H        -2.997532        -1.905299         2.489161
 H        -3.997491        -0.808894         1.630544
 H        -1.584910        -0.068236         2.137390
 H        -2.808657         0.982141        -0.418708
 H        -2.208704        -1.672198        -1.225556
 H        -0.949488        -0.694103        -1.909321
 H         0.892408        -2.101361         0.595331
 H        -0.632763         1.897266         0.747237
 H        -0.358084         1.666638        -1.062214
