19
Iteration:  4428
 C        -3.066248        -1.572442         1.384306
 C        -1.901489        -0.580871         1.217227
 C        -2.006482         0.387475        -0.038754
 C        -1.492288        -0.869016        -0.929258
 C        -0.688321        -1.103119         0.308666
 O        -0.144820        -2.308984         0.667831
 C         0.317232         0.026908         0.070180
 O         1.545265        -0.079067         0.014985
 C        -0.594523         1.206967        -0.105690
 H        -3.371070        -2.084841         0.409406
 H        -2.689642        -2.483637         1.802617
 H        -3.743026        -1.205011         2.112903
 H        -1.640117         0.072022         2.055877
 H        -2.928779         0.899591        -0.232454
 H        -2.256262        -1.640021        -1.126954
 H        -0.934230        -0.583665        -1.931516
 H         0.862836        -2.231120         0.776434
 H        -0.411391         1.957418         0.637234
 H        -0.247204         1.674510        -1.165850
