19
Iteration:  2227
 C        -3.056884        -1.526312         1.478623
 C        -1.704798        -0.593543         1.258157
 C        -1.988245         0.425531         0.045237
 C        -1.656776        -0.761029        -0.951295
 C        -0.656555        -1.182562         0.234985
 O        -0.159354        -2.519536         0.471727
 C         0.325364         0.058983         0.067922
 O         1.563362         0.001163         0.099530
 C        -0.649755         1.200432        -0.103928
 H        -3.652646        -1.887284         0.639041
 H        -2.686458        -2.426314         2.154061
 H        -3.687986        -0.816293         2.017508
 H        -1.239343        -0.267029         2.187700
 H        -2.875977         1.035614         0.049650
 H        -2.456821        -1.505204        -1.098420
 H        -1.168110        -0.483892        -1.910774
 H         0.750000        -2.384736         0.274994
 H        -0.519733         2.157238         0.485184
 H        -0.408286         1.525154        -1.156416
