19
Iteration:  3819
 C        -2.900276        -1.518282         1.502598
 C        -1.803173        -0.500267         1.118913
 C        -1.971330         0.302706        -0.156757
 C        -1.507073        -0.866550        -0.981885
 C        -0.631532        -1.137808         0.260211
 O        -0.276429        -2.454451         0.629470
 C         0.296760         0.060967         0.149517
 O         1.522061         0.024976         0.234888
 C        -0.686095         1.165784        -0.195789
 H        -3.522699        -1.854588         0.602587
 H        -2.430675        -2.207068         2.145298
 H        -3.484599        -0.957206         2.238163
 H        -1.441554        -0.017849         2.029268
 H        -2.905082         0.783881        -0.474956
 H        -2.303846        -1.621430        -1.297813
 H        -1.068900        -0.331979        -1.940090
 H         0.723847        -2.438460         0.393332
 H        -0.600936         2.035316         0.469647
 H        -0.600581         1.515296        -1.208635
