19
Iteration:  1544
 C        -2.843053        -1.495276         1.705085
 C        -1.824511        -0.452462         1.003062
 C        -2.024025         0.389883        -0.279904
 C        -1.660406        -0.861007        -1.053553
 C        -0.566847        -1.207249         0.162555
 O        -0.254099        -2.514112         0.389466
 C         0.289929         0.001046         0.171239
 O         1.501008         0.048784         0.297301
 C        -0.629647         1.184498         0.060115
 H        -3.216725        -2.230716         1.104107
 H        -1.987618        -1.914141         2.301559
 H        -3.759281        -0.969343         2.182897
 H        -1.446574         0.130120         1.802951
 H        -2.811634         1.083701        -0.627565
 H        -2.397221        -1.678946        -1.179798
 H        -1.110162        -0.647391        -1.992240
 H         0.636293        -2.497978         0.954002
 H        -0.734548         1.676466         1.014873
 H        -0.162411         1.893093        -0.640457
