19
Iteration:   347charge 0 multiplicity 1
 C        -2.816758        -1.476261         1.710250
 C        -1.803348        -0.524300         1.049292
 C        -1.998908         0.447975        -0.197313
 C        -1.602689        -0.834399        -1.094503
 C        -0.733421        -1.226119         0.113830
 O        -0.153749        -2.394189         0.350768
 C         0.258650         0.030247         0.185614
 O         1.487353        -0.117012         0.381806
 C        -0.662803         1.224771        -0.076430
 H        -3.076276        -2.361171         1.044341
 H        -2.169037        -2.001959         2.436464
 H        -3.728343        -1.236558         2.331024
 H        -1.356582        -0.036876         1.915815
 H        -2.848703         1.042585        -0.363588
 H        -2.290749        -1.618170        -1.040206
 H        -1.237222        -0.741068        -2.208101
 H         0.373933        -2.208201         1.233803
 H        -0.590368         2.032782         0.711393
 H        -0.242535         1.718765        -0.939982
