19
Iteration:  4850charge 0 multiplicity 1
 C        -2.899579        -1.337415         1.733162
 C        -1.782397        -0.515372         1.085592
 C        -1.965747         0.338805        -0.115920
 C        -1.539609        -0.939143        -1.069772
 C        -0.654810        -1.234715         0.131305
 O        -0.074966        -2.356764         0.361939
 C         0.206901        -0.000896         0.170779
 O         1.389888         0.001049         0.432904
 C        -0.657922         1.105613        -0.215962
 H        -3.554840        -1.896969         0.935392
 H        -2.609578        -2.124318         2.411474
 H        -3.696182        -0.739468         2.198886
 H        -1.421872         0.077273         1.953678
 H        -2.849097         0.905245        -0.181435
 H        -2.404800        -1.797655        -1.241740
 H        -1.060126        -0.747546        -2.060944
 H         0.948890        -2.363713         0.475466
 H        -0.484072         1.928188         0.530472
 H        -0.525489         1.562576        -1.227641
