19
Iteration:  4561
 C        -2.961273        -1.352253         1.664734
 C        -1.733154        -0.490797         1.096648
 C        -1.931522         0.355651        -0.134609
 C        -1.707084        -0.918781        -0.951850
 C        -0.627840        -1.210170         0.016002
 O        -0.021369        -2.446145         0.382355
 C         0.268819         0.012509         0.112958
 O         1.428226        -0.020380         0.549278
 C        -0.700364         1.159775        -0.252747
 H        -3.540888        -1.865475         0.763419
 H        -2.536650        -2.082128         2.379536
 H        -3.788724        -0.785440         2.184946
 H        -1.188461         0.031653         1.905440
 H        -2.916912         0.908479        -0.242395
 H        -2.546121        -1.615605        -0.756188
 H        -1.423669        -0.846382        -2.071550
 H         0.961170        -2.320406         0.429391
 H        -0.532683         2.067822         0.384126
 H        -0.420801         1.413034        -1.351954
