19
Iteration:  2675
 C        -2.881413        -1.561761         1.568422
 C        -1.838396        -0.489635         1.085495
 C        -2.033905         0.424550        -0.182175
 C        -1.607471        -0.888558        -1.002602
 C        -0.705331        -1.145891         0.203851
 O        -0.074630        -2.331136         0.587745
 C         0.300071         0.003226         0.159434
 O         1.486911        -0.108392         0.336069
 C        -0.675133         1.155129        -0.236318
 H        -3.375408        -2.119105         0.764754
 H        -2.286902        -2.364647         2.123180
 H        -3.602602        -1.000765         2.221447
 H        -1.574292         0.195780         1.970623
 H        -2.878113         1.002301        -0.431861
 H        -2.531538        -1.413217        -1.266710
 H        -1.110558        -0.662410        -2.004160
 H         0.936162        -2.111116         0.633432
 H        -0.566577         2.057375         0.431840
 H        -0.444231         1.594367        -1.229552
