19
Iteration:  1676
 C        -2.889828        -1.512971         1.671672
 C        -1.895929        -0.536116         1.084630
 C        -1.944163         0.436113        -0.219199
 C        -1.397751        -0.834210        -1.026209
 C        -0.710929        -1.143019         0.331084
 O        -0.230099        -2.444226         0.392919
 C         0.234346         0.032493         0.179861
 O         1.451569        -0.060588         0.108751
 C        -0.660547         1.218826        -0.003219
 H        -3.301774        -2.306158         0.996034
 H        -2.264407        -2.110252         2.407859
 H        -3.624571        -1.082378         2.459704
 H        -1.549817         0.031877         1.980935
 H        -2.897906         0.961992        -0.292213
 H        -2.089847        -1.658611        -1.260499
 H        -0.633016        -0.786643        -1.796953
 H         0.710880        -2.388109         0.376194
 H        -0.609605         1.898545         0.870727
 H        -0.251658         1.699699        -0.862624
