19
Iteration:  1183charge 0 multiplicity 1
 C        -2.809235        -1.462592         1.765652
 C        -1.795097        -0.584785         0.954533
 C        -2.005806         0.377809        -0.163265
 C        -1.604508        -0.708586        -1.132865
 C        -0.666821        -1.197770         0.146490
 O        -0.130328        -2.377171         0.403973
 C         0.248156        -0.022641         0.138537
 O         1.432103        -0.153815         0.436259
 C        -0.664923         1.206279        -0.127519
 H        -3.315067        -2.190930         1.316695
 H        -2.201632        -2.165536         2.378641
 H        -3.320067        -0.845573         2.492500
 H        -1.442912         0.040895         1.821225
 H        -2.988122         0.842865        -0.206181
 H        -2.462747        -1.397024        -1.337531
 H        -1.298845        -0.406361        -2.092128
 H         0.818777        -2.118910         0.774010
 H        -0.634531         1.886521         0.717501
 H        -0.542879         1.665789        -1.151690
