19
Iteration:  2950charge 0 multiplicity 1
 C        -2.977216        -1.467154         1.610349
 C        -1.818240        -0.492685         1.013377
 C        -1.995003         0.370683        -0.278377
 C        -1.635375        -0.978409        -1.049053
 C        -0.632136        -1.195253         0.183326
 O        -0.087241        -2.341617         0.633359
 C         0.329526        -0.002033         0.081079
 O         1.507245         0.022679         0.347883
 C        -0.673723         1.146175        -0.122179
 H        -3.653396        -0.933161         2.239768
 H        -3.705945        -2.079001         0.905031
 H        -2.388894        -2.226902         2.220724
 H        -1.540550         0.189876         1.872005
 H        -2.830867         0.969249        -0.699095
 H        -2.449914        -1.705764        -0.941615
 H        -1.253587        -0.923109        -2.075593
 H         0.807851        -2.164367         1.008413
 H        -0.547832         1.844510         0.740711
 H        -0.463105         1.672158        -1.091117
