19
Iteration:  2114charge 0 multiplicity 1
 C        -2.941242        -1.447448         1.483932
 C        -1.733284        -0.502515         1.222959
 C        -1.999573         0.470947         0.032146
 C        -1.675159        -0.872757        -0.854647
 C        -0.651011        -1.177786         0.148895
 O        -0.066034        -2.497638         0.276630
 C         0.297034        -0.016223         0.211113
 O         1.509931        -0.063584         0.268515
 C        -0.685373         1.256394        -0.209909
 H        -3.748855        -1.320798         0.626923
 H        -2.777839        -2.452883         1.500683
 H        -3.429742        -1.086643         2.421892
 H        -1.312111        -0.256859         2.214894
 H        -2.974011         1.003675        -0.185499
 H        -2.351306        -1.732352        -0.690536
 H        -1.380936        -0.855593        -1.941776
 H         0.771168        -2.332891         0.690555
 H        -0.587059         2.047586         0.562974
 H        -0.776390         1.552315        -1.200132
