19
Iteration:  3577charge 0 multiplicity 1
 C        -3.082263        -1.450033         1.440247
 C        -1.835566        -0.501807         1.177606
 C        -2.042550         0.395288        -0.130374
 C        -1.527445        -0.872350        -1.001272
 C        -0.623740        -1.206312         0.351159
 O        -0.000287        -2.432731         0.667966
 C         0.286904        -0.010415         0.122343
 O         1.491218        -0.034313         0.028635
 C        -0.680045         1.187349        -0.058362
 H        -3.662569        -1.416524         0.374389
 H        -2.823452        -2.499709         1.632584
 H        -3.872694        -1.068755         2.123300
 H        -1.447953         0.143810         2.098054
 H        -3.010325         0.686741        -0.584735
 H        -2.254284        -1.690021        -1.282754
 H        -0.778312        -0.619062        -1.886666
 H         0.862716        -2.167923         0.971314
 H        -0.420567         1.937730         0.755699
 H        -0.522835         1.776866        -1.018808
