19
Iteration:  2409
 C        -2.968139        -1.508444         1.630888
 C        -1.814360        -0.569590         1.169445
 C        -1.982571         0.374610        -0.100156
 C        -1.579641        -0.780225        -1.047288
 C        -0.706874        -1.118259         0.197582
 O        -0.038863        -2.366230         0.418319
 C         0.289334         0.035360         0.119630
 O         1.474148        -0.197839         0.214843
 C        -0.679274         1.196211        -0.053648
 H        -3.931438        -0.859860         1.316648
 H        -2.933976        -2.477058         1.304142
 H        -2.970748        -1.456350         2.719945
 H        -1.529151         0.015535         2.036857
 H        -2.965348         0.901981        -0.283982
 H        -2.417324        -1.481137        -1.267781
 H        -1.024548        -0.591446        -1.969921
 H         0.942744        -2.096588         0.301993
 H        -0.439481         1.852019         0.848436
 H        -0.530542         1.768240        -0.996973
