19
Iteration:  2604
 C        -2.898768        -1.297859         1.610460
 C        -1.760481        -0.475263         1.122703
 C        -2.012596         0.340983        -0.175566
 C        -1.689114        -1.030406        -0.965823
 C        -0.643616        -1.237145         0.089986
 O        -0.107333        -2.493409         0.286051
 C         0.319720         0.070855         0.155960
 O         1.515067         0.092525         0.489469
 C        -0.699222         1.120628        -0.170973
 H        -2.855720        -2.461697         1.399635
 H        -3.207665        -1.160380         2.647621
 H        -3.726060        -0.946682         0.996844
 H        -1.168961        -0.024308         2.050057
 H        -3.031585         0.877601        -0.215857
 H        -2.536652        -1.753509        -0.874023
 H        -1.148501        -1.109090        -1.878224
 H         0.684990        -2.376138         0.884949
 H        -0.739832         1.801991         0.720039
 H        -0.317068         1.780110        -1.005857
