19
Iteration:  2873charge 0 multiplicity 1
 C        -2.886591        -1.392197         1.653202
 C        -1.681176        -0.496717         1.087159
 C        -1.959542         0.366936        -0.322191
 C        -1.720357        -1.047207        -0.984030
 C        -0.721249        -1.289460         0.185468
 O        -0.085927        -2.479354         0.402312
 C         0.334853         0.011534         0.105910
 O         1.439242         0.230781         0.586100
 C        -0.629804         1.126632        -0.289074
 H        -3.216124        -0.811820         2.422105
 H        -3.655531        -1.367226         0.718486
 H        -2.935889        -2.539041         1.703939
 H        -1.446493         0.177940         1.988198
 H        -2.949456         0.836730        -0.402002
 H        -2.652143        -1.639929        -0.800642
 H        -1.309739        -1.201593        -1.974906
 H         0.399659        -2.487278         1.218594
 H        -0.635165         2.044862         0.388530
 H        -0.214819         1.727018        -1.172133
