19
Iteration:  4829charge 0 multiplicity 1
 C        -2.819164        -1.389753         1.667133
 C        -1.719587        -0.490899         1.121848
 C        -2.022236         0.338114        -0.257031
 C        -1.643714        -0.857490        -1.012341
 C        -0.711768        -1.188277         0.225125
 O        -0.035339        -2.458426         0.400625
 C         0.258432        -0.009358         0.156981
 O         1.425259        -0.092409         0.472885
 C        -0.731237         1.254439        -0.240342
 H        -3.518123        -1.906977         0.891746
 H        -2.363835        -2.174569         2.246877
 H        -3.577413        -0.943531         2.298669
 H        -1.432825         0.107451         1.920603
 H        -2.885693         0.883546        -0.470664
 H        -2.411577        -1.621423        -1.287439
 H        -1.215189        -0.724588        -2.032199
 H         0.917033        -2.340321         0.605732
 H        -0.797905         2.186213         0.367946
 H        -0.416834         1.576376        -1.307498
