19
Iteration:   804
 C        -3.057699        -1.374410         1.579635
 C        -1.801415        -0.648714         1.084869
 C        -1.980122         0.391092        -0.096367
 C        -1.575437        -0.804414        -0.971293
 C        -0.647893        -1.207491         0.173952
 O         0.023896        -2.400783         0.542070
 C         0.284847         0.007715         0.211885
 O         1.474539        -0.095474         0.096565
 C        -0.667474         1.234449        -0.026082
 H        -3.422282        -1.995566         0.657768
 H        -2.863632        -2.218055         2.176278
 H        -3.894767        -0.704525         1.788823
 H        -1.389112        -0.175914         1.977232
 H        -3.003432         0.859126        -0.198861
 H        -2.412055        -1.583078        -1.033046
 H        -1.399967        -0.822796        -2.027597
 H         0.828253        -2.239521        -0.021216
 H        -0.723374         1.808867         0.938697
 H        -0.478159         1.944984        -0.813971
