19
Iteration:  2422charge 0 multiplicity 1
 C        -3.009954        -1.409983         1.582876
 C        -1.797209        -0.567326         1.118258
 C        -2.021372         0.382523        -0.083308
 C        -1.647740        -0.808942        -1.025930
 C        -0.647938        -1.256798         0.178626
 O        -0.016299        -2.380499         0.481651
 C         0.276977        -0.072654         0.100747
 O         1.502829        -0.094577         0.153754
 C        -0.634649         1.269395         0.019367
 H        -4.098986        -0.971920         1.380783
 H        -3.060560        -2.310394         0.960337
 H        -2.923481        -1.770154         2.591904
 H        -1.267817        -0.026318         2.013114
 H        -2.997236         0.893117        -0.140149
 H        -2.426036        -1.595139        -1.171156
 H        -1.219262        -0.572131        -2.082451
 H         0.879594        -2.176628         0.565303
 H        -0.704949         1.933797         0.952696
 H        -0.313589         1.872008        -0.788975
