19
Iteration:  3721charge 0 multiplicity 1
 C        -2.945467        -1.351978         1.626950
 C        -1.731825        -0.573470         1.201689
 C        -2.002587         0.357043        -0.160674
 C        -1.667491        -0.857182        -0.961571
 C        -0.699028        -1.220621         0.228249
 O         0.001750        -2.489812         0.286532
 C         0.249796         0.001063         0.184156
 O         1.423582         0.016135         0.530652
 C        -0.636604         1.171394        -0.333533
 H        -3.345822        -2.012533         0.863101
 H        -2.760999        -1.699002         2.565257
 H        -3.774768        -0.672607         1.748446
 H        -1.237198         0.021017         1.909424
 H        -2.889131         0.891864        -0.457407
 H        -2.477004        -1.580584        -0.937088
 H        -1.157452        -1.095654        -1.953304
 H         0.848099        -1.970672         0.254901
 H        -0.471043         2.206685         0.052001
 H        -0.475645         1.284275        -1.393776
