19
Iteration:  1199
 C        -2.681723        -1.499797         1.735354
 C        -1.785846        -0.469691         1.156069
 C        -2.016113         0.400258        -0.216183
 C        -1.692370        -0.831328        -1.193935
 C        -0.732980        -1.122557         0.022222
 O        -0.129688        -2.371967         0.434965
 C         0.244978         0.011971         0.163739
 O         1.432969        -0.203187         0.473010
 C        -0.695433         1.193622        -0.086264
 H        -3.369515        -2.029059         0.866080
 H        -2.056907        -2.184231         2.373725
 H        -3.441903        -0.922976         2.306628
 H        -1.189992         0.052489         1.883437
 H        -2.878649         1.053506        -0.474969
 H        -2.406174        -1.618024        -1.439907
 H        -1.079564        -0.693150        -2.187624
 H         0.809359        -2.168664         0.470575
 H        -0.767804         1.899788         0.783066
 H        -0.300900         1.732271        -0.936588
