19
Iteration:  2315charge 0 multiplicity 1
 C        -2.825007        -1.433362         1.676135
 C        -1.710199        -0.503328         1.144676
 C        -2.024539         0.375705        -0.036906
 C        -1.591517        -0.747669        -1.002062
 C        -0.696297        -1.202975         0.162425
 O        -0.187514        -2.534069         0.227224
 C         0.267888         0.004811         0.186437
 O         1.462806        -0.042561         0.383245
 C        -0.662508         1.202999        -0.191469
 H        -3.168097        -2.259827         1.119536
 H        -2.627502        -1.919807         2.771269
 H        -3.795496        -0.941702         1.899837
 H        -1.261670         0.003020         2.031379
 H        -3.041034         0.792649        -0.104775
 H        -2.547236        -1.254861        -1.188875
 H        -1.176805        -0.584774        -2.030996
 H         0.862278        -2.470203         0.221108
 H        -0.475474         1.989722         0.568870
 H        -0.404595         1.627843        -1.189264
