19
Iteration:  2397charge 0 multiplicity 1
 C        -2.909685        -1.490903         1.648120
 C        -1.837461        -0.536618         1.150983
 C        -1.972966         0.411190        -0.075473
 C        -1.532106        -0.792481        -1.023096
 C        -0.676435        -1.150442         0.277190
 O        -0.101319        -2.320598         0.332332
 C         0.248191         0.001022         0.167092
 O         1.454181        -0.210894         0.257610
 C        -0.664940         1.178923        -0.144065
 H        -4.070612        -1.394597         1.235904
 H        -2.721330        -2.488407         1.373279
 H        -2.964292        -1.516726         2.759318
 H        -1.288070        -0.187452         1.971411
 H        -2.805944         1.133139        -0.347295
 H        -2.319752        -1.576356        -1.123745
 H        -1.089337        -0.397110        -1.910458
 H         0.958232        -2.139788         0.268415
 H        -0.798743         2.003575         0.617185
 H        -0.537046         1.728878        -1.153095
