19
Iteration:  3660
 C        -2.910607        -1.417580         1.526822
 C        -1.776357        -0.521392         1.105089
 C        -1.914128         0.348184        -0.140781
 C        -1.501931        -0.894900        -1.083158
 C        -0.710303        -1.182635         0.214962
 O        -0.168724        -2.453895         0.562811
 C         0.229015         0.040599         0.212816
 O         1.445031        -0.014176         0.154267
 C        -0.676959         1.239439        -0.083540
 H        -3.153247        -2.156898         0.763660
 H        -2.495440        -2.177926         2.305775
 H        -3.772837        -0.829175         1.963358
 H        -1.521224        -0.038162         2.080627
 H        -2.899910         0.836997        -0.349842
 H        -2.175018        -1.796450        -1.039201
 H        -0.911559        -0.863882        -1.927204
 H         0.673021        -2.382553         0.987378
 H        -0.825961         1.868292         0.818853
 H        -0.342070         1.805147        -0.968937
