19
Iteration:  4569
 C        -2.932494        -1.341277         1.691902
 C        -1.712141        -0.534292         1.133366
 C        -2.010283         0.380825        -0.194536
 C        -1.693525        -0.878852        -1.013785
 C        -0.616789        -1.275799         0.089879
 O        -0.067054        -2.414067         0.381896
 C         0.265801         0.003325         0.201582
 O         1.442864         0.004385         0.519523
 C        -0.650303         1.123966        -0.266244
 H        -3.398600        -1.980559         0.807246
 H        -2.614380        -2.200414         2.279966
 H        -3.566543        -0.726524         2.316855
 H        -1.263372        -0.029099         1.943848
 H        -2.938024         0.815815        -0.539155
 H        -2.446075        -1.601432        -0.981834
 H        -1.563195        -0.584000        -2.012551
 H         0.841857        -2.179299         0.270495
 H        -0.625932         2.014218         0.306092
 H        -0.375273         1.404437        -1.371300
