19
Iteration:   432charge 0 multiplicity 1
 C        -3.089111        -1.373530         1.637456
 C        -1.775256        -0.584689         1.197195
 C        -2.042084         0.296942        -0.063897
 C        -1.583966        -0.873704        -1.033163
 C        -0.602190        -1.195009         0.055359
 O        -0.084569        -2.470134         0.415078
 C         0.323246        -0.012449         0.112034
 O         1.521850         0.016624         0.326088
 C        -0.674769         1.207680        -0.106347
 H        -3.635480        -1.639817         0.733763
 H        -2.891638        -2.251845         2.222147
 H        -3.585826        -0.510756         2.168067
 H        -1.418028         0.113538         2.012613
 H        -2.920652         0.877288        -0.234722
 H        -2.210959        -1.671148        -1.274608
 H        -1.113378        -0.435467        -2.018067
 H         0.830017        -2.331907         0.306338
 H        -0.364378         1.848760         0.784866
 H        -0.490149         1.781013        -1.001526
