19
Iteration:  1411charge 0 multiplicity 1
 C        -2.966736        -1.382168         1.740211
 C        -1.827107        -0.576118         1.094663
 C        -1.979124         0.313549        -0.167966
 C        -1.388037        -0.751419        -1.085488
 C        -0.650579        -1.219303         0.188111
 O        -0.201322        -2.487619         0.420575
 C         0.245788        -0.029546         0.171285
 O         1.461097         0.055555         0.155759
 C        -0.681422         1.128852         0.039616
 H        -3.661331        -1.839277         1.150555
 H        -2.626515        -2.250572         2.348052
 H        -3.704885        -0.718159         2.296007
 H        -1.383793        -0.076497         1.923245
 H        -2.745473         1.058190        -0.366390
 H        -2.079973        -1.498759        -1.478944
 H        -0.863816        -0.491666        -1.999825
 H         0.723920        -2.415820         0.582001
 H        -0.719369         1.985637         0.644593
 H        -0.268051         1.464440        -0.950256
