19
Iteration:  2909charge 0 multiplicity 1
 C        -2.914183        -1.363138         1.590400
 C        -1.766658        -0.410586         1.165800
 C        -2.034190         0.303456        -0.160282
 C        -1.552243        -0.930376        -0.975181
 C        -0.636765        -1.199027         0.202302
 O        -0.012069        -2.394346         0.397103
 C         0.284341        -0.037247         0.111239
 O         1.391251         0.000717         0.619406
 C        -0.744890         1.096103        -0.437578
 H        -3.388710        -1.004411         2.505091
 H        -3.683571        -1.196396         0.847565
 H        -2.737056        -2.389170         1.775009
 H        -1.292550         0.150377         1.989378
 H        -3.067850         0.755266        -0.283392
 H        -2.259916        -1.728243        -1.167407
 H        -0.992443        -0.709982        -1.930553
 H         0.902395        -2.190243         0.637861
 H        -0.658654         2.017019         0.072610
 H        -0.647720         1.197084        -1.519990
