19
Iteration:   720
 C        -2.784044        -1.519154         1.653954
 C        -1.809946        -0.524748         1.135516
 C        -1.994146         0.422635        -0.211037
 C        -1.590875        -0.791396        -1.099599
 C        -0.701602        -1.130840         0.169551
 O        -0.217009        -2.408243         0.483937
 C         0.259309        -0.075961         0.079921
 O         1.485052        -0.027046         0.275418
 C        -0.664182         1.145526         0.007478
 H        -3.117865        -2.126386         0.740289
 H        -2.313785        -2.199322         2.470962
 H        -3.608556        -1.052292         2.238461
 H        -1.521948         0.181033         1.992761
 H        -2.880871         1.026328        -0.456089
 H        -2.471044        -1.501920        -1.189989
 H        -0.895234        -0.621239        -1.937883
 H         0.760707        -2.552935         0.340073
 H        -0.542814         1.855406         0.913523
 H        -0.413083         1.757015        -0.952971
