19
Iteration:  1133
 C        -2.977141        -1.350552         1.439826
 C        -1.726424        -0.536717         1.225255
 C        -2.085919         0.394334        -0.076030
 C        -1.635906        -0.917736        -0.824056
 C        -0.603676        -1.182140         0.202258
 O        -0.099941        -2.480836         0.280870
 C         0.331018         0.017423         0.171495
 O         1.538507         0.017145         0.267012
 C        -0.692662         1.156670        -0.098049
 H        -3.573234        -1.880384         0.551402
 H        -2.890545        -2.252487         2.077379
 H        -3.585667        -0.633709         1.984582
 H        -1.444029        -0.165280         2.242987
 H        -2.935876         1.068607        -0.200775
 H        -2.290933        -1.773209        -0.864861
 H        -1.306886        -0.975222        -1.943800
 H         0.799129        -2.298847         0.414189
 H        -0.561338         1.910239         0.702104
 H        -0.668050         1.558815        -1.080693
