19
Iteration:  1461
 C        -2.941882        -1.331626         1.639008
 C        -1.762158        -0.514629         1.158032
 C        -2.001510         0.364038        -0.089610
 C        -1.759103        -0.883800        -1.005145
 C        -0.642999        -1.216476         0.071637
 O         0.048762        -2.363537         0.266308
 C         0.232072        -0.053613         0.158793
 O         1.427623        -0.088489         0.456524
 C        -0.585074         1.156148        -0.168171
 H        -3.456298        -2.077353         0.817824
 H        -2.794827        -2.065822         2.419032
 H        -3.746000        -0.737369         2.023376
 H        -1.355680        -0.024579         2.120133
 H        -2.858885         1.031738        -0.343402
 H        -2.622383        -1.567035        -0.839045
 H        -1.570921        -0.964230        -2.087833
 H         0.993168        -2.072624         0.629167
 H        -0.494565         1.877597         0.731281
 H        -0.317898         1.702776        -1.074363
