19
Iteration:  3420charge 0 multiplicity 1
 C        -2.959622        -1.308668         1.658257
 C        -1.765486        -0.626845         1.142157
 C        -1.959738         0.344393        -0.236124
 C        -1.597548        -0.939263        -1.022592
 C        -0.680975        -1.260512         0.094957
 O        -0.112730        -2.460691         0.401443
 C         0.309272         0.082649         0.114392
 O         1.482955         0.030177         0.449898
 C        -0.688274         1.209980        -0.187044
 H        -3.066441        -2.159556         1.100048
 H        -2.558898        -1.707883         2.699393
 H        -3.928051        -0.873378         1.937265
 H        -1.348279         0.040569         1.994763
 H        -2.878451         0.912434        -0.265084
 H        -2.409454        -1.774803        -1.190330
 H        -1.046993        -0.875193        -2.014690
 H         0.657284        -2.216316         0.980793
 H        -0.780864         1.862519         0.644466
 H        -0.588472         1.771394        -1.140686
