19
Iteration:  2297charge 0 multiplicity 1
 C        -2.901395        -1.442271         1.768506
 C        -1.842776        -0.531577         1.203682
 C        -1.966062         0.450879        -0.153931
 C        -1.661292        -0.831727        -0.998960
 C        -0.692748        -1.135631         0.181311
 O        -0.106031        -2.396487         0.157244
 C         0.269553        -0.030196         0.150210
 O         1.475582        -0.112835         0.323773
 C        -0.600346         1.132094        -0.052457
 H        -3.065850        -2.419245         1.233287
 H        -2.589368        -1.825882         2.758592
 H        -3.948671        -1.003743         1.843775
 H        -1.483655         0.040154         2.043110
 H        -2.884865         1.042685        -0.373911
 H        -2.146482        -1.792832        -1.108116
 H        -1.080517        -0.575062        -1.889563
 H         0.915078        -2.123481         0.301864
 H        -0.563703         2.010993         0.577842
 H        -0.461978         1.568339        -1.130099
