19
Iteration:  4572
 C        -2.896906        -1.348928         1.688141
 C        -1.726339        -0.550427         1.144300
 C        -2.026007         0.365995        -0.203586
 C        -1.688559        -0.868399        -1.034877
 C        -0.644200        -1.235382         0.128322
 O        -0.072721        -2.423838         0.380167
 C         0.267787        -0.012237         0.217795
 O         1.443717         0.012908         0.509047
 C        -0.633995         1.113157        -0.276170
 H        -3.465153        -1.920716         0.829756
 H        -2.583783        -2.207517         2.314164
 H        -3.548896        -0.672232         2.314953
 H        -1.277787        -0.015671         1.998094
 H        -2.978969         0.876633        -0.546340
 H        -2.496289        -1.629525        -1.091923
 H        -1.484381        -0.567513        -2.110384
 H         0.939598        -2.211125         0.263544
 H        -0.637803         2.057612         0.341435
 H        -0.357741         1.411248        -1.359200
