19
Iteration:  3955charge 0 multiplicity 1
 C        -2.849259        -1.506575         1.514838
 C        -1.790532        -0.543318         1.118580
 C        -1.947568         0.385056        -0.174245
 C        -1.616513        -0.946810        -0.972351
 C        -0.671633        -1.150236         0.168529
 O        -0.239465        -2.420201         0.557839
 C         0.274330         0.007600         0.135133
 O         1.477534         0.074990         0.315179
 C        -0.628921         1.199868        -0.186217
 H        -3.234327        -1.979876         0.631991
 H        -2.404963        -2.195727         2.317437
 H        -3.666893        -1.001867         2.043297
 H        -1.330887        -0.103773         2.023640
 H        -2.866795         1.037311        -0.280800
 H        -2.357379        -1.729155        -1.023359
 H        -1.059878        -0.857619        -1.948386
 H         0.689336        -2.576106         0.770139
 H        -0.561830         1.990465         0.584128
 H        -0.395142         1.711148        -1.196020
