19
Iteration:  4414
 C        -3.054034        -1.568188         1.373957
 C        -1.897157        -0.548240         1.139132
 C        -1.931416         0.427927        -0.065795
 C        -1.528199        -0.846170        -0.953933
 C        -0.703587        -1.146541         0.408276
 O        -0.034357        -2.308236         0.643030
 C         0.299959         0.010312         0.189683
 O         1.507782        -0.094151         0.005338
 C        -0.638881         1.170599        -0.134431
 H        -3.849170        -1.788117         0.529088
 H        -2.666654        -2.463641         1.982603
 H        -3.801133        -1.010521         1.964151
 H        -1.681876        -0.303310         2.150262
 H        -2.826133         0.998611        -0.251268
 H        -2.365739        -1.579520        -1.079217
 H        -0.948442        -0.784623        -1.808499
 H         0.902350        -2.160139         0.310849
 H        -0.492183         1.978015         0.655191
 H        -0.535759         1.670796        -1.167028
