19
Iteration:   140charge 0 multiplicity 1
 C        -2.952351        -1.328535         1.498830
 C        -1.768500        -0.505651         1.241464
 C        -1.978465         0.353684         0.016593
 C        -1.726128        -0.834216        -0.888129
 C        -0.694651        -1.297852         0.157787
 O        -0.010164        -2.462191         0.237910
 C         0.272001        -0.020843         0.058314
 O         1.483712         0.010837         0.367298
 C        -0.608794         1.121627        -0.151980
 H        -2.913054        -2.294454         0.988101
 H        -2.855046        -1.594547         2.529111
 H        -3.886011        -0.753901         1.256474
 H        -1.448446        -0.060970         2.196531
 H        -2.930728         0.878690        -0.130841
 H        -2.596723        -1.402191        -0.928749
 H        -1.373094        -0.490926        -1.851284
 H         0.823976        -2.275240         0.675137
 H        -0.430346         1.902162         0.653348
 H        -0.614636         1.563037        -1.130478
