19
Iteration:  4488
 C        -2.967764        -1.488264         1.668813
 C        -1.796285        -0.569037         1.141374
 C        -1.972293         0.363780        -0.233437
 C        -1.532956        -0.840509        -1.069269
 C        -0.689543        -1.181265         0.268590
 O        -0.169181        -2.385006         0.507351
 C         0.308330         0.020860         0.117470
 O         1.525567        -0.002066         0.264798
 C        -0.649953         1.156595        -0.166041
 H        -3.383998        -2.085027         0.967021
 H        -2.520040        -1.960709         2.568571
 H        -3.839536        -0.907349         1.975558
 H        -1.585760         0.075422         2.047191
 H        -2.913336         0.934336        -0.435066
 H        -2.428749        -1.536577        -1.088356
 H        -1.044745        -0.809043        -2.024453
 H         0.777365        -2.557886         0.183207
 H        -0.836655         1.790148         0.760573
 H        -0.452895         1.818462        -0.899485
