19
Iteration:  4711
 C        -3.032136        -1.371144         1.439504
 C        -1.894644        -0.577122         1.183165
 C        -1.975560         0.349985        -0.143392
 C        -1.579926        -0.917047        -0.951129
 C        -0.707992        -1.186578         0.303137
 O         0.058012        -2.431642         0.556348
 C         0.280093         0.006342         0.114503
 O         1.490556        -0.047892         0.094688
 C        -0.655187         1.198361        -0.046092
 H        -3.471457        -2.228259         0.697781
 H        -2.749816        -1.848530         2.369063
 H        -3.745480        -0.615356         1.731856
 H        -1.785037         0.243864         2.059198
 H        -2.917741         0.825125        -0.400398
 H        -2.447618        -1.500548        -1.140310
 H        -0.951588        -0.876200        -2.065010
 H         1.019558        -1.994878         0.629028
 H        -0.548040         1.684092         0.872940
 H        -0.525264         2.055871        -0.828816
