19
Iteration:  1367charge 0 multiplicity 1
 C        -2.830950        -1.526484         1.328335
 C        -1.801371        -0.501623         1.184873
 C        -1.965201         0.423094        -0.019053
 C        -1.672520        -0.864456        -0.898055
 C        -0.653111        -1.096854         0.247865
 O        -0.201366        -2.344640         0.571119
 C         0.292115        -0.008714         0.147191
 O         1.518637        -0.090122         0.110476
 C        -0.634057         1.174654        -0.060226
 H        -3.240449        -2.016685         0.455579
 H        -2.579157        -2.447291         1.913080
 H        -3.796149        -1.025442         1.789930
 H        -1.596378        -0.167916         2.174134
 H        -2.859886         0.978581        -0.325850
 H        -2.359231        -1.705237        -1.141149
 H        -1.385556        -0.782235        -1.952127
 H         0.777105        -2.388024         0.490566
 H        -0.376736         1.839483         0.745859
 H        -0.612455         1.595589        -1.081967
