19
Iteration:  4279charge 0 multiplicity 1
 C        -2.702063        -1.464514         1.610335
 C        -1.764063        -0.495560         1.057212
 C        -1.988418         0.436126        -0.214384
 C        -1.738889        -0.808117        -1.047939
 C        -0.633269        -1.237908         0.097070
 O        -0.093034        -2.431015         0.445384
 C         0.220811        -0.072515         0.150459
 O         1.351250        -0.000108         0.612681
 C        -0.653772         1.130147        -0.311475
 H        -3.010244        -2.126955         0.860007
 H        -2.274667        -1.836789         2.600669
 H        -3.660666        -0.944213         1.945672
 H        -1.271534         0.165258         1.718072
 H        -2.987712         0.978787        -0.217936
 H        -2.397306        -1.601076        -0.983485
 H        -1.518959        -0.703173        -2.050651
 H         0.736062        -2.228857         1.033320
 H        -0.375763         1.925985         0.477410
 H        -0.395466         1.528209        -1.264520
