19
Iteration:   691
 C        -2.750468        -1.510244         1.679468
 C        -1.725096        -0.637341         1.113861
 C        -2.019382         0.446661        -0.164886
 C        -1.628094        -0.768783        -1.155627
 C        -0.723813        -1.118952         0.092610
 O        -0.202071        -2.473055         0.496640
 C         0.295277        -0.046730         0.121850
 O         1.474762        -0.071514         0.380883
 C        -0.716672         1.287126        -0.079964
 H        -3.343551        -2.046888         1.013755
 H        -2.426933        -2.275486         2.368269
 H        -3.386043        -0.815684         2.210387
 H        -1.310411        -0.007333         1.877186
 H        -2.959270         0.964847        -0.265852
 H        -2.412826        -1.471124        -1.145596
 H        -1.103315        -0.635887        -2.137232
 H         0.731121        -2.494426         0.514237
 H        -0.543829         2.150012         0.477623
 H        -0.528647         1.634729        -1.098490
