19
Iteration:  1759
 C        -2.942936        -1.412216         1.636731
 C        -1.857288        -0.546116         1.153529
 C        -1.957930         0.399755        -0.027408
 C        -1.710977        -0.846605        -0.895175
 C        -0.680629        -1.179548         0.156147
 O        -0.006928        -2.351833         0.171718
 C         0.306447        -0.039858         0.179304
 O         1.478730        -0.099773         0.495143
 C        -0.639645         1.144653        -0.306121
 H        -3.379863        -2.249288         1.030800
 H        -2.635618        -1.922878         2.643501
 H        -3.805248        -0.780743         1.742596
 H        -1.389992         0.030554         2.020880
 H        -2.834849         1.027887        -0.114726
 H        -2.436405        -1.693995        -0.946889
 H        -1.226963        -0.641593        -1.899017
 H         0.843680        -2.158419         0.493201
 H        -0.347905         2.046150         0.203906
 H        -0.672584         1.438477        -1.468082
