19
Iteration:  4124
 C        -2.913126        -1.618776         1.444526
 C        -1.878939        -0.509750         1.123422
 C        -1.969446         0.375503        -0.187141
 C        -1.576188        -0.813010        -1.084134
 C        -0.646115        -1.095308         0.342558
 O        -0.139285        -2.354344         0.654079
 C         0.299165         0.063535         0.158632
 O         1.495612        -0.154000         0.030713
 C        -0.638766         1.211022         0.012932
 H        -3.044825        -2.382212         0.576110
 H        -2.822707        -2.205951         2.363596
 H        -3.844045        -1.016144         1.762163
 H        -1.444332         0.004327         2.044433
 H        -2.739461         1.076690        -0.398228
 H        -2.377893        -1.574355        -1.214850
 H        -1.037409        -0.672698        -1.953522
 H         0.680714        -2.228629         1.198069
 H        -0.963424         1.864034         0.908324
 H        -0.360539         2.021715        -0.837248
