19
Iteration:  1267charge 0 multiplicity 1
 C        -2.983731        -1.406205         1.528792
 C        -1.737990        -0.654649         1.229618
 C        -1.961591         0.367116         0.013816
 C        -1.593930        -0.862881        -0.958297
 C        -0.637187        -1.191710         0.218286
 O        -0.171489        -2.488110         0.285459
 C         0.317442         0.030783         0.121353
 O         1.497009         0.124805         0.332883
 C        -0.640207         1.118690        -0.203545
 H        -3.654594        -1.873731         0.724329
 H        -2.823151        -2.059660         2.359844
 H        -3.759334        -0.615650         1.808146
 H        -1.421964        -0.263044         2.215076
 H        -2.822623         1.048104        -0.122015
 H        -2.401882        -1.634714        -1.212763
 H        -1.232751        -0.442538        -1.944691
 H         0.736336        -2.567816         0.778509
 H        -0.544609         1.991232         0.439971
 H        -0.567738         1.529389        -1.201822
