19
Iteration:  1098charge 0 multiplicity 1
 C        -3.047442        -1.466825         1.547412
 C        -1.788621        -0.691603         1.223669
 C        -1.960957         0.444468        -0.079234
 C        -1.590085        -0.799387        -1.035405
 C        -0.768549        -1.231585         0.224805
 O        -0.017188        -2.378849         0.454804
 C         0.275905         0.006129         0.154985
 O         1.488150        -0.024378         0.130010
 C        -0.623939         1.141618        -0.055282
 H        -3.589510        -1.664495         0.587319
 H        -2.718648        -2.180956         2.354202
 H        -3.718297        -0.766254         2.053171
 H        -1.338219        -0.210911         2.069204
 H        -2.875782         0.945592        -0.265028
 H        -2.438847        -1.471505        -1.309557
 H        -0.893917        -0.506840        -1.852095
 H         0.905149        -2.044239         0.617696
 H        -0.466821         1.885089         0.733812
 H        -0.490514         1.739897        -0.980453
