19
Iteration:  4747charge 0 multiplicity 1
 C        -2.957803        -1.442681         1.548097
 C        -1.784368        -0.557023         1.193682
 C        -2.010384         0.271304        -0.164958
 C        -1.531888        -0.869938        -1.034203
 C        -0.693542        -1.182806         0.333974
 O        -0.151429        -2.374161         0.512577
 C         0.301860         0.071058         0.164815
 O         1.517453        -0.018116         0.196021
 C        -0.664033         1.144611        -0.196074
 H        -3.408907        -1.895543         0.699663
 H        -2.802557        -2.231001         2.349775
 H        -3.707773        -0.740252         1.960776
 H        -1.509168         0.067304         2.087156
 H        -2.946685         0.892694        -0.367405
 H        -2.345207        -1.575437        -1.227719
 H        -0.914152        -0.671842        -1.932816
 H         0.858543        -2.221442         0.460061
 H        -0.699757         1.782696         0.679241
 H        -0.432654         1.766511        -1.049313
