19
Iteration:  1054charge 0 multiplicity 1
 C        -2.842093        -1.607820         1.535624
 C        -1.832126        -0.472889         1.120635
 C        -2.020640         0.422105        -0.184597
 C        -1.561832        -0.843112        -0.974412
 C        -0.694431        -1.134340         0.269575
 O        -0.206361        -2.371056         0.494886
 C         0.326872        -0.033000         0.136354
 O         1.543699        -0.134624         0.111239
 C        -0.705337         1.261288         0.031043
 H        -3.376678        -1.943474         0.650366
 H        -2.300298        -2.209103         2.222561
 H        -3.708809        -1.160930         1.930182
 H        -1.484840        -0.002861         2.041047
 H        -2.927313         1.002298        -0.303050
 H        -2.459634        -1.521158        -1.137954
 H        -0.910630        -0.701603        -1.852586
 H         0.809208        -2.104227         0.445603
 H        -0.830924         1.774266         0.981284
 H        -0.389018         1.961317        -0.750656
