19
Iteration:  2240
 C        -2.909129        -1.393922         1.500240
 C        -1.714515        -0.658349         1.221888
 C        -1.955562         0.361372         0.045286
 C        -1.704852        -0.769103        -0.959107
 C        -0.728495        -1.204541         0.202579
 O        -0.105507        -2.403326         0.448119
 C         0.275939        -0.028327         0.098239
 O         1.488849        -0.029972         0.148653
 C        -0.615565         1.196683        -0.092707
 H        -3.136121        -1.797658         0.575806
 H        -3.012647        -2.268317         2.321176
 H        -3.825532        -0.807028         1.831891
 H        -1.325082        -0.247138         2.131477
 H        -2.930213         0.839001        -0.075701
 H        -2.454896        -1.517154        -1.226859
 H        -1.250806        -0.425239        -1.919512
 H         0.909953        -2.394663         0.196855
 H        -0.371672         1.903107         0.725203
 H        -0.642941         1.714275        -1.164543
