19
Iteration:  2206charge 0 multiplicity 1
 C        -2.962520        -1.559200         1.501260
 C        -1.885068        -0.521914         1.214043
 C        -1.971528         0.361621        -0.045571
 C        -1.594430        -0.774576        -0.879547
 C        -0.695649        -1.154389         0.318237
 O        -0.238821        -2.474818         0.414972
 C         0.345759         0.008222         0.132047
 O         1.578557         0.040999         0.014801
 C        -0.595715         1.220337        -0.053028
 H        -3.669336        -1.661076         0.734724
 H        -2.441971        -2.612636         1.681341
 H        -3.426406        -1.103433         2.371067
 H        -1.506210        -0.159498         2.134364
 H        -2.820445         0.944620        -0.350808
 H        -2.182996        -1.690097        -0.834693
 H        -1.171237        -0.608409        -1.888594
 H         0.707802        -2.592056         0.546725
 H        -0.290526         1.964798         0.739943
 H        -0.463375         1.616196        -1.125341
