19
Iteration:  4237
 C        -2.956768        -1.427359         1.639212
 C        -1.772413        -0.505874         1.069109
 C        -2.045737         0.370675        -0.228001
 C        -1.522314        -0.893359        -1.004590
 C        -0.629259        -1.123501         0.237518
 O        -0.075284        -2.453017         0.374372
 C         0.268173         0.045133         0.201948
 O         1.451743        -0.053453         0.443793
 C        -0.711462         1.152826        -0.265101
 H        -3.627102        -1.819747         0.961208
 H        -2.494995        -2.160696         2.364847
 H        -3.514530        -0.884107         2.400753
 H        -1.437146        -0.011776         1.991768
 H        -2.989390         1.014670        -0.444396
 H        -2.212359        -1.702585        -0.901435
 H        -1.127347        -0.832940        -1.972963
 H         0.858658        -2.426955         0.453948
 H        -0.806174         2.028773         0.554928
 H        -0.370587         1.588932        -1.161968
