19
Iteration:   824
 C        -2.970754        -1.477429         1.597459
 C        -1.852053        -0.513539         1.149568
 C        -1.969472         0.335200        -0.164349
 C        -1.525113        -0.893362        -1.015944
 C        -0.666592        -1.132721         0.264966
 O        -0.118491        -2.394756         0.448089
 C         0.288096         0.011589         0.110323
 O         1.480936        -0.086685         0.124995
 C        -0.660059         1.212062         0.069486
 H        -3.533718        -1.938563         0.735364
 H        -2.484798        -2.217489         2.244085
 H        -3.640224        -0.732685         2.056067
 H        -1.549045         0.103776         2.027808
 H        -2.873928         1.000003        -0.325231
 H        -2.323941        -1.615780        -1.419380
 H        -0.956354        -0.704444        -2.008727
 H         0.865531        -2.008816         0.373423
 H        -0.656016         1.710686         1.022316
 H        -0.510864         1.714058        -0.875397
