19
Iteration:  2506
 C        -2.941746        -1.540121         1.472446
 C        -1.825786        -0.531628         1.171452
 C        -1.990083         0.437701        -0.110108
 C        -1.606127        -0.816403        -1.037911
 C        -0.684760        -1.165722         0.218609
 O        -0.108041        -2.361289         0.606961
 C         0.263704         0.018772         0.124572
 O         1.480580        -0.116325         0.095682
 C        -0.592258         1.173826        -0.040959
 H        -2.983260        -1.712979         2.608057
 H        -3.878516        -1.312605         1.101914
 H        -2.655351        -2.512158         1.096291
 H        -1.521371         0.078362         2.074618
 H        -2.808522         1.202431        -0.297335
 H        -2.457944        -1.504393        -0.984109
 H        -1.019033        -0.787302        -1.904139
 H         0.863768        -2.280407         0.632346
 H        -0.664169         1.787810         0.889078
 H        -0.447672         1.878631        -0.899948
