19
Iteration:  1005charge 0 multiplicity 1
 C        -2.967263        -1.477680         1.518045
 C        -1.722152        -0.558604         1.251484
 C        -2.001346         0.320436         0.014556
 C        -1.644478        -0.788725        -0.997502
 C        -0.586624        -1.159097         0.200940
 O        -0.212946        -2.499314         0.422515
 C         0.325795         0.030220         0.068243
 O         1.537616         0.031056         0.274734
 C        -0.676629         1.201510        -0.179881
 H        -3.127716        -1.979577         0.522861
 H        -2.697104        -2.220887         2.334216
 H        -4.048386        -0.990951         1.747865
 H        -1.397576        -0.084398         2.190459
 H        -2.937783         0.872903        -0.248923
 H        -2.376914        -1.544541        -0.965373
 H        -1.290554        -0.457560        -1.983867
 H         0.701433        -2.373023         0.625788
 H        -0.320878         2.023038         0.514876
 H        -0.560282         1.543554        -1.262412
