19
Iteration:  1800
 C        -2.842350        -1.245302         1.740100
 C        -1.735924        -0.573039         1.033572
 C        -1.959132         0.348702        -0.160718
 C        -1.506534        -0.848953        -1.029581
 C        -0.688854        -1.275137         0.127999
 O        -0.104791        -2.524616         0.266621
 C         0.235340        -0.018010         0.059664
 O         1.374132        -0.027972         0.429497
 C        -0.732159         1.248704         0.000349
 H        -3.579800        -1.859934         1.010007
 H        -2.351704        -1.927544         2.460099
 H        -3.542672        -0.694884         2.344038
 H        -1.266567         0.021892         1.761257
 H        -2.971319         0.734253        -0.404226
 H        -2.396656        -1.437951        -1.155840
 H        -1.089965        -0.759401        -2.013575
 H         0.875580        -2.409607         0.536115
 H        -0.894171         1.728531         0.970201
 H        -0.473627         1.910740        -0.769414
