19
Iteration:  1118
 C        -3.098452        -1.415082         1.457259
 C        -1.752502        -0.565646         1.175776
 C        -1.954387         0.371950         0.034227
 C        -1.658125        -0.869909        -0.923163
 C        -0.589177        -1.199878         0.223748
 O        -0.028296        -2.463409         0.368763
 C         0.305071         0.004081         0.075376
 O         1.521017         0.002333         0.211554
 C        -0.703689         1.211526        -0.090520
 H        -3.578233        -1.738414         0.492651
 H        -3.041464        -2.323233         2.218258
 H        -3.772960        -0.697341         2.005956
 H        -1.373280        -0.067590         2.067530
 H        -2.950521         0.822054        -0.034708
 H        -2.520038        -1.567280        -0.899691
 H        -1.274276        -0.626565        -1.875627
 H         0.898563        -2.463956         0.821911
 H        -0.578654         1.981621         0.679504
 H        -0.404645         1.724872        -1.059551
