19
Iteration:   603charge 0 multiplicity 1
 C        -2.997880        -1.290489         1.672748
 C        -1.739929        -0.587024         1.175702
 C        -1.951985         0.307530        -0.094271
 C        -1.599629        -0.775158        -1.066614
 C        -0.707167        -1.295050         0.049368
 O         0.002620        -2.410839         0.417850
 C         0.240694        -0.033479         0.082276
 O         1.439430        -0.045783         0.322067
 C        -0.712605         1.141603        -0.068862
 H        -3.684832        -1.697488         0.974161
 H        -2.653058        -2.100894         2.358673
 H        -3.439430        -0.541447         2.304801
 H        -1.270276        -0.169030         2.052302
 H        -2.901540         0.798753        -0.281043
 H        -2.371900        -1.502632        -1.335864
 H        -1.036982        -0.426852        -1.940586
 H         0.984416        -2.077977         0.267060
 H        -0.689749         1.686169         0.818979
 H        -0.522402         1.828378        -0.924352
