19
Iteration:  1723
 C        -2.792886        -1.449997         1.443069
 C        -1.637704        -0.553205         1.151922
 C        -1.942203         0.438523        -0.006879
 C        -1.765289        -0.819906        -0.945185
 C        -0.694303        -1.221344         0.128775
 O        -0.132306        -2.425053         0.455163
 C         0.243408        -0.049223         0.095843
 O         1.407356        -0.016962         0.401998
 C        -0.624424         1.156027        -0.221513
 H        -2.986060        -2.325776         0.641209
 H        -2.749876        -1.888961         2.435163
 H        -3.634987        -0.732954         1.576210
 H        -1.236640        -0.176243         2.061770
 H        -2.928799         0.972160        -0.034370
 H        -2.633209        -1.449429        -1.004662
 H        -1.449376        -0.535034        -1.931861
 H         0.789161        -2.232363         0.509177
 H        -0.451483         1.892289         0.609333
 H        -0.693435         1.648882        -1.185859
