19
Iteration:  1237
 C        -2.858131        -1.517077         1.569509
 C        -1.772275        -0.507567         1.180092
 C        -1.994650         0.458866        -0.068494
 C        -1.724416        -0.868095        -0.982629
 C        -0.663000        -1.192516         0.150806
 O        -0.145978        -2.477022         0.303449
 C         0.317475         0.036989         0.142363
 O         1.508874        -0.008151         0.454727
 C        -0.615156         1.184816        -0.244904
 H        -3.227380        -2.079251         0.759361
 H        -2.490984        -2.240294         2.294188
 H        -3.802507        -1.098086         2.063024
 H        -1.454543        -0.080983         2.193295
 H        -2.847285         1.099797        -0.275308
 H        -2.583449        -1.538537        -0.898053
 H        -1.395250        -0.552612        -1.926851
 H         0.640743        -2.412521         0.874642
 H        -0.585856         2.136293         0.277930
 H        -0.469696         1.497275        -1.314983
