19
Iteration:  3314
 C        -2.924419        -1.645081         1.435072
 C        -1.861002        -0.495926         1.131449
 C        -2.028355         0.438282        -0.143220
 C        -1.521752        -0.792718        -1.028202
 C        -0.688949        -1.135762         0.388986
 O        -0.147501        -2.375712         0.779916
 C         0.305213         0.027218         0.129837
 O         1.493600        -0.110964        -0.012219
 C        -0.622247         1.244742        -0.135908
 H        -3.846895        -1.723603         0.616984
 H        -2.485446        -2.629953         1.401300
 H        -3.513567        -1.500015         2.368505
 H        -1.496538        -0.192300         2.088445
 H        -2.920521         0.849169        -0.530335
 H        -2.140702        -1.694882        -1.198370
 H        -1.078777        -0.485873        -1.942096
 H         0.784307        -2.252334         0.955460
 H        -0.565346         1.904069         0.765491
 H        -0.312447         1.940396        -1.001875
