19
Iteration:  3919charge 0 multiplicity 1
 C        -3.074289        -1.444036         1.461238
 C        -1.868300        -0.524924         1.118763
 C        -2.013197         0.403400        -0.068860
 C        -1.530511        -0.941644        -0.972765
 C        -0.598992        -1.203647         0.248274
 O        -0.063311        -2.392580         0.595303
 C         0.299531        -0.017606         0.154764
 O         1.506677        -0.004780         0.104299
 C        -0.651266         1.185260        -0.083981
 H        -3.152118        -2.236090         0.743388
 H        -2.899574        -1.985718         2.365749
 H        -3.995513        -0.870540         1.589633
 H        -1.543097         0.009344         2.031048
 H        -2.838955         1.040273        -0.481418
 H        -2.309150        -1.770516        -1.247433
 H        -0.956301        -0.616857        -1.880070
 H         0.897630        -2.170813         0.674933
 H        -0.738719         1.874369         0.785543
 H        -0.445940         1.715464        -0.923356
