19
Iteration:  1032
 C        -2.839343        -1.589580         1.473981
 C        -1.794516        -0.549420         1.153789
 C        -1.972013         0.446939        -0.038546
 C        -1.633148        -0.807690        -1.014922
 C        -0.648797        -1.143840         0.240194
 O        -0.232106        -2.471400         0.509232
 C         0.275169         0.056035         0.165673
 O         1.493192        -0.006549         0.139900
 C        -0.626098         1.188405        -0.097670
 H        -3.268467        -2.214293         0.729421
 H        -2.316282        -2.102325         2.249994
 H        -3.742948        -1.210735         1.827806
 H        -1.587101        -0.179202         2.157802
 H        -2.734473         1.146583        -0.348670
 H        -2.572501        -1.412881        -1.175737
 H        -1.070387        -0.614329        -1.941444
 H         0.557392        -2.279299         0.981940
 H        -0.328501         1.784672         0.743281
 H        -0.387775         1.633474        -1.063924
