19
Iteration:   759charge 0 multiplicity 1
 C        -3.027566        -1.510148         1.455905
 C        -1.786111        -0.539723         1.262961
 C        -1.962390         0.406164        -0.024131
 C        -1.579766        -0.824201        -0.903189
 C        -0.658651        -1.161951         0.317422
 O        -0.083383        -2.422640         0.390394
 C         0.289531         0.020106         0.073675
 O         1.525061        -0.058611         0.146439
 C        -0.675138         1.197051        -0.102243
 H        -3.467009        -2.071798         0.614636
 H        -3.022171        -2.298286         2.140280
 H        -3.805541        -0.772095         1.691401
 H        -1.420170        -0.098078         2.204836
 H        -2.898961         0.952685        -0.316017
 H        -2.405791        -1.548151        -1.032433
 H        -1.206379        -0.745889        -1.928394
 H         0.824352        -2.339175         0.859815
 H        -0.455852         2.101421         0.453708
 H        -0.537509         1.584917        -1.103017
