19
Iteration:  3428
 C        -2.880498        -1.373448         1.655580
 C        -1.706416        -0.573411         1.032256
 C        -2.023136         0.366885        -0.212106
 C        -1.651909        -0.951136        -0.996797
 C        -0.623894        -1.214942         0.133678
 O        -0.163497        -2.480451         0.393778
 C         0.302810         0.075293         0.138370
 O         1.465367         0.018572         0.500913
 C        -0.703401         1.203279        -0.201371
 H        -3.047981        -2.350729         1.176797
 H        -2.573004        -1.481103         2.778255
 H        -3.865329        -0.745832         1.730229
 H        -1.235337         0.044020         1.795669
 H        -3.010351         0.855404        -0.447125
 H        -2.371862        -1.746613        -1.149747
 H        -1.123335        -0.858618        -1.983470
 H         0.715688        -2.233287         0.846413
 H        -0.525558         1.957134         0.620027
 H        -0.492963         1.670435        -1.137691
