19
Iteration:  2679charge 0 multiplicity 1
 C        -2.878503        -1.552407         1.543759
 C        -1.832018        -0.449053         1.089649
 C        -2.005701         0.436222        -0.191518
 C        -1.618375        -0.901133        -0.991865
 C        -0.716130        -1.162532         0.184040
 O        -0.069381        -2.326174         0.603978
 C         0.289761        -0.037849         0.153261
 O         1.492903        -0.095503         0.316807
 C        -0.678147         1.184190        -0.194234
 H        -3.445176        -2.054143         0.788383
 H        -2.301785        -2.368518         2.047884
 H        -3.592703        -1.090664         2.247691
 H        -1.516894         0.044099         1.955225
 H        -2.981677         0.940927        -0.478014
 H        -2.462410        -1.589069        -1.250692
 H        -1.052582        -0.776650        -1.926044
 H         0.893981        -2.203353         0.647689
 H        -0.684334         2.062552         0.414023
 H        -0.498267         1.687206        -1.149131
