19
Iteration:   127charge 0 multiplicity 1
 C        -3.039493        -1.420034         1.675280
 C        -1.826895        -0.474866         1.226738
 C        -2.005724         0.410238        -0.015817
 C        -1.697653        -0.835712        -0.953175
 C        -0.613157        -1.163215         0.119251
 O         0.034434        -2.447715         0.177382
 C         0.295192        -0.057414         0.146409
 O         1.500923        -0.080728         0.368521
 C        -0.653159         1.149952        -0.177175
 H        -3.118746        -2.409486         1.210239
 H        -3.199277        -1.496444         2.763623
 H        -4.067519        -0.962110         1.405877
 H        -1.340936         0.104832         2.019583
 H        -2.945230         1.066940        -0.088870
 H        -2.436921        -1.680316        -1.164255
 H        -1.255395        -0.728864        -1.956886
 H         0.925118        -2.124409         0.610988
 H        -0.433058         2.027644         0.527448
 H        -0.332299         1.458854        -1.185155
