19
Iteration:  2710charge 0 multiplicity 1
 C        -2.989402        -1.443262         1.396873
 C        -1.788249        -0.506844         1.085541
 C        -1.974753         0.357684        -0.188465
 C        -1.550403        -0.965690        -0.926390
 C        -0.618518        -1.179125         0.274721
 O        -0.124431        -2.379091         0.665212
 C         0.311817         0.030010         0.148919
 O         1.509277         0.016707         0.095649
 C        -0.709844         1.159039        -0.073819
 H        -3.818277        -1.299184         0.804554
 H        -2.871996        -2.588093         1.635996
 H        -3.369915        -1.091404         2.420415
 H        -1.550548         0.084460         1.992953
 H        -2.977783         0.729349        -0.441572
 H        -2.429526        -1.654787        -1.099323
 H        -0.799489        -0.824421        -1.797935
 H         0.798107        -2.436838         0.810104
 H        -0.846849         1.656879         0.894741
 H        -0.588745         1.917242        -0.865432
