19
Iteration:  3573charge 0 multiplicity 1
 C        -3.115492        -1.443569         1.447068
 C        -1.853485        -0.512824         1.212387
 C        -2.024987         0.393206        -0.155630
 C        -1.520186        -0.855437        -0.992893
 C        -0.597014        -1.201477         0.325563
 O        -0.011676        -2.436337         0.646514
 C         0.283498        -0.017894         0.106279
 O         1.504951        -0.028196         0.043505
 C        -0.683802         1.190941        -0.054398
 H        -3.638261        -1.519286         0.570218
 H        -2.892167        -2.509687         1.667306
 H        -3.731530        -0.960331         2.199367
 H        -1.510792         0.118837         1.950267
 H        -2.979349         0.665641        -0.607287
 H        -2.121248        -1.766361        -1.265536
 H        -0.838085        -0.644231        -1.772820
 H         0.890038        -2.088063         0.968496
 H        -0.562150         1.896790         0.713908
 H        -0.503317         1.716224        -0.982502
