19
Iteration:  3996charge 0 multiplicity 1
 C        -2.842277        -1.447332         1.721360
 C        -1.800070        -0.483052         1.104317
 C        -2.039802         0.347590        -0.245605
 C        -1.616760        -0.904860        -1.050209
 C        -0.664810        -1.169532         0.106807
 O        -0.126395        -2.384710         0.401321
 C         0.306584         0.040962         0.124197
 O         1.459938        -0.083287         0.574617
 C        -0.675525         1.176079        -0.291811
 H        -3.599462        -1.864717         1.127355
 H        -2.273423        -2.285394         2.160545
 H        -3.418669        -0.990590         2.512639
 H        -1.338337         0.093117         1.926726
 H        -3.041332         0.832956        -0.499473
 H        -2.380852        -1.759192        -1.115153
 H        -1.184597        -0.685669        -2.080840
 H         0.802293        -2.012257         0.565713
 H        -0.655822         1.962215         0.478810
 H        -0.391877         1.591707        -1.176745
