19
Iteration:   790charge 0 multiplicity 1
 C        -3.063742        -1.412343         1.434499
 C        -1.765639        -0.604942         1.208157
 C        -1.957732         0.359840        -0.042502
 C        -1.683763        -0.807696        -1.022495
 C        -0.659674        -1.225820         0.280289
 O         0.052575        -2.410070         0.508375
 C         0.275558        -0.007283         0.088201
 O         1.489960        -0.044050         0.110964
 C        -0.692304         1.173930         0.014323
 H        -3.564340        -1.895478         0.582972
 H        -3.118667        -1.988034         2.349268
 H        -3.692887        -0.589677         1.791276
 H        -1.359538        -0.110998         2.132940
 H        -2.862501         0.972960        -0.203207
 H        -2.556254        -1.459647        -1.052882
 H        -1.147570        -0.471232        -1.943148
 H         1.015725        -2.342705         0.358661
 H        -0.512964         1.986973         0.679130
 H        -0.442895         1.562728        -0.990751
