19
Iteration:  1144
 C        -2.953124        -1.356673         1.536571
 C        -1.791404        -0.535282         1.194904
 C        -1.940339         0.301824        -0.051020
 C        -1.662891        -0.912916        -0.934153
 C        -0.669799        -1.172449         0.271901
 O        -0.118979        -2.452537         0.255965
 C         0.296897         0.018107         0.167466
 O         1.523127         0.028839         0.301618
 C        -0.679096         1.157658        -0.133956
 H        -3.402097        -1.679201         0.489102
 H        -2.592841        -2.188544         2.183363
 H        -3.803662        -0.873244         2.023930
 H        -1.289878        -0.028987         2.057264
 H        -2.913082         0.773924        -0.238422
 H        -2.419858        -1.651586        -0.795227
 H        -1.237078        -0.661485        -1.976602
 H         0.857616        -2.426234         0.263122
 H        -0.678332         1.979391         0.612384
 H        -0.324084         1.645020        -1.021622
