19
Iteration:  2088
 C        -2.921906        -1.392325         1.612767
 C        -1.656905        -0.545952         1.159238
 C        -1.987475         0.310748        -0.073029
 C        -1.717499        -0.866128        -0.926407
 C        -0.668665        -1.186446         0.162683
 O        -0.153342        -2.463499         0.230322
 C         0.300691         0.013272         0.096556
 O         1.497221         0.072836         0.342004
 C        -0.613622         1.153925        -0.107255
 H        -3.568791        -1.423960         0.779288
 H        -2.794101        -2.519753         1.898167
 H        -3.482616        -0.816438         2.376953
 H        -1.261551        -0.009320         2.117801
 H        -2.925029         0.857266        -0.063925
 H        -2.429599        -1.657708        -1.135141
 H        -1.057308        -0.732783        -1.802505
 H         0.278245        -2.655663         1.022572
 H        -0.542866         1.729386         0.773909
 H        -0.664241         1.750639        -1.088612
