19
Iteration:  4358
 C        -3.076441        -1.397347         1.574450
 C        -1.822361        -0.542595         1.141186
 C        -1.975152         0.310471        -0.179937
 C        -1.538581        -0.908929        -1.032145
 C        -0.619692        -1.188312         0.198980
 O        -0.065492        -2.409805         0.470891
 C         0.277574         0.026984         0.140386
 O         1.488324         0.025657         0.248774
 C        -0.646763         1.169577        -0.101564
 H        -3.621281        -1.973826         0.812813
 H        -2.917368        -2.154990         2.432177
 H        -3.678169        -0.601126         2.064536
 H        -1.390131        -0.082328         2.008573
 H        -3.001528         0.687634        -0.412713
 H        -2.314587        -1.638931        -0.983741
 H        -1.147958        -0.806572        -1.967946
 H         0.836566        -2.393638         0.859481
 H        -0.525755         1.816375         0.852290
 H        -0.319882         1.771120        -0.942738
