19
Iteration:  1281charge 0 multiplicity 1
 C        -3.021224        -1.333554         1.518775
 C        -1.732991        -0.553740         1.144699
 C        -1.949780         0.361834        -0.067645
 C        -1.599337        -0.887155        -0.942105
 C        -0.628821        -1.273246         0.219314
 O        -0.099808        -2.601788         0.309092
 C         0.285925         0.037968         0.149159
 O         1.486125         0.072532         0.272244
 C        -0.721445         1.278971        -0.063466
 H        -3.307919        -1.861377         0.661698
 H        -2.852965        -2.103871         2.312274
 H        -3.828090        -0.656586         1.978058
 H        -1.230750        -0.048432         2.087426
 H        -2.969628         0.742656        -0.157450
 H        -2.422428        -1.665891        -0.914848
 H        -0.998259        -0.733020        -1.831173
 H         0.821083        -2.473226         0.488437
 H        -0.615266         2.005537         0.752772
 H        -0.498345         1.800079        -1.048966
