19
Iteration:  4638charge 0 multiplicity 1
 C        -2.879335        -1.455886         1.462301
 C        -1.907484        -0.446564         1.138053
 C        -1.965024         0.360699        -0.092601
 C        -1.607713        -0.939618        -0.988414
 C        -0.654143        -1.203443         0.167516
 O        -0.182799        -2.378221         0.570724
 C         0.290230        -0.019729         0.114390
 O         1.525202         0.009718         0.238202
 C        -0.640097         1.165666        -0.112635
 H        -3.191167        -2.114534         0.685356
 H        -2.359282        -2.171590         2.139059
 H        -3.637940        -0.956569         2.123045
 H        -1.400249        -0.165133         1.992117
 H        -2.890227         0.917420        -0.434043
 H        -2.455152        -1.641755        -0.989185
 H        -1.204299        -0.824638        -1.957918
 H         0.804602        -2.143357         0.743695
 H        -0.491517         1.946244         0.720468
 H        -0.429209         1.633273        -1.088183
