19
Iteration:  1578
 C        -3.041455        -1.451576         1.555144
 C        -1.795306        -0.571894         1.194231
 C        -2.005873         0.341476        -0.073398
 C        -1.479820        -0.791200        -0.983055
 C        -0.635147        -1.146176         0.231695
 O        -0.103086        -2.392638         0.419542
 C         0.259766         0.009110         0.169493
 O         1.475118        -0.104134         0.142230
 C        -0.682564         1.208621        -0.084850
 H        -3.537828        -1.868421         0.699410
 H        -2.641590        -2.348954         2.115657
 H        -3.708905        -0.950963         2.315914
 H        -1.387097        -0.090337         2.047547
 H        -2.904518         0.943370        -0.239301
 H        -2.178214        -1.547943        -1.350629
 H        -0.876729        -0.497775        -1.830542
 H         0.829037        -2.443131         0.748494
 H        -0.632906         2.081515         0.596220
 H        -0.485417         1.602725        -1.066099
