19
Iteration:  2771
 C        -3.034511        -1.452028         1.340243
 C        -1.838859        -0.470761         1.168216
 C        -1.982390         0.279449        -0.120130
 C        -1.568751        -0.970075        -0.971873
 C        -0.585805        -1.129660         0.347317
 O        -0.009400        -2.327274         0.696929
 C         0.261783         0.067711         0.146233
 O         1.453341        -0.113642         0.090576
 C        -0.684168         1.197497        -0.113668
 H        -3.931934        -0.852135         0.974242
 H        -2.954044        -2.274295         0.706060
 H        -3.216376        -1.694544         2.379813
 H        -1.602676         0.148085         2.054363
 H        -2.906604         0.750399        -0.362676
 H        -2.348013        -1.664589        -1.124437
 H        -1.009768        -1.008209        -1.855442
 H         0.946745        -2.188860         0.520012
 H        -0.452148         1.900632         0.725615
 H        -0.567551         1.785342        -1.026825
