19
Iteration:  1809charge 0 multiplicity 1
 C        -2.844876        -1.310231         1.703151
 C        -1.685418        -0.573735         1.082722
 C        -2.005276         0.364274        -0.210659
 C        -1.523002        -0.810625        -1.097084
 C        -0.647262        -1.212247         0.155816
 O        -0.142313        -2.519185         0.319210
 C         0.218691         0.019396         0.075019
 O         1.390646        -0.030580         0.404769
 C        -0.746050         1.154874         0.001106
 H        -3.657293        -1.912304         1.122907
 H        -2.493054        -2.060304         2.312965
 H        -3.285383        -0.470339         2.302801
 H        -1.115117        -0.128050         1.932848
 H        -3.067174         0.729144        -0.305931
 H        -2.360926        -1.479893        -1.188136
 H        -1.064191        -0.524983        -2.030841
 H         0.795632        -2.464957         0.734775
 H        -0.494657         1.803205         0.914370
 H        -0.572615         1.832420        -0.768700
