19
Iteration:   792
 C        -3.066454        -1.424854         1.455034
 C        -1.767263        -0.613130         1.197751
 C        -1.961638         0.359109        -0.061427
 C        -1.668884        -0.804231        -1.023551
 C        -0.662150        -1.226451         0.267839
 O         0.056688        -2.412671         0.517002
 C         0.266429        -0.004048         0.102314
 O         1.495886        -0.050895         0.108859
 C        -0.692010         1.190986         0.012393
 H        -3.542377        -1.830467         0.498051
 H        -3.096091        -1.924504         2.360816
 H        -3.698303        -0.592706         1.799326
 H        -1.331998        -0.098225         2.060819
 H        -2.884704         1.003425        -0.209398
 H        -2.581914        -1.445693        -0.946220
 H        -1.178323        -0.475123        -1.932873
 H         0.967040        -2.335765         0.292460
 H        -0.520556         1.974434         0.783610
 H        -0.478311         1.519237        -0.985280
