19
Iteration:   769
 C        -3.074812        -1.426290         1.429234
 C        -1.809374        -0.589456         1.227660
 C        -1.996299         0.368331         0.056840
 C        -1.577029        -0.828372        -0.897624
 C        -0.709969        -1.198465         0.249015
 O        -0.030641        -2.394449         0.428113
 C         0.311462        -0.011861         0.107052
 O         1.509547        -0.028492         0.123843
 C        -0.648335         1.158941        -0.174144
 H        -3.188697        -1.835948         0.429323
 H        -2.956357        -2.083701         2.246336
 H        -3.971667        -0.897878         1.759004
 H        -1.282745        -0.124711         2.080986
 H        -2.918883         1.000967         0.098760
 H        -2.324393        -1.612279        -0.950565
 H        -1.073771        -0.409505        -1.787545
 H         0.913080        -2.278351         0.853452
 H        -0.391777         1.754834         0.702602
 H        -0.548325         1.690564        -1.106102
