19
Iteration:   512
 C        -2.960740        -1.523648         1.388917
 C        -1.684941        -0.610687         1.183299
 C        -2.025809         0.363275        -0.006282
 C        -1.684138        -0.757960        -1.031229
 C        -0.638715        -1.133571         0.211183
 O        -0.161975        -2.419682         0.675581
 C         0.277119         0.021969         0.070779
 O         1.489805        -0.045179         0.121318
 C        -0.584043         1.209193        -0.057821
 H        -3.092921        -2.335047         0.605741
 H        -2.872156        -2.055697         2.353923
 H        -3.872339        -0.910210         1.553914
 H        -1.248396        -0.082731         2.061616
 H        -2.794206         1.159013         0.024789
 H        -2.551080        -1.556914        -1.183217
 H        -1.240146        -0.503778        -2.043597
 H         0.801973        -2.483272         0.318968
 H        -0.531134         1.989911         0.694224
 H        -0.365075         1.507263        -1.097992
