19
Iteration:  2762charge 0 multiplicity 1
 C        -3.075852        -1.409481         1.354978
 C        -1.865698        -0.570396         1.170277
 C        -2.007717         0.390389        -0.141684
 C        -1.449609        -0.940758        -0.921559
 C        -0.682435        -1.190639         0.399309
 O        -0.007383        -2.351333         0.688314
 C         0.273716         0.033279         0.127481
 O         1.501003        -0.053204         0.051103
 C        -0.674495         1.188626        -0.129867
 H        -3.970182        -0.973406         0.944389
 H        -2.965234        -2.411599         0.840416
 H        -3.325524        -1.704823         2.414666
 H        -1.475516         0.007953         2.123517
 H        -2.962326         0.738001        -0.394870
 H        -2.204222        -1.708853        -0.890859
 H        -1.017256        -0.747206        -1.920182
 H         0.898029        -2.176727         0.409487
 H        -0.676707         2.009019         0.648021
 H        -0.543484         1.543584        -1.166457
