19
Iteration:  2309
 C        -2.840558        -1.448911         1.739797
 C        -1.781507        -0.536286         1.156188
 C        -2.079676         0.377901        -0.068504
 C        -1.580979        -0.767773        -0.981312
 C        -0.687334        -1.207762         0.190897
 O        -0.153851        -2.480205         0.194402
 C         0.269911        -0.027369         0.177280
 O         1.460473        -0.059924         0.364954
 C        -0.635346         1.226453        -0.158704
 H        -3.009136        -2.289272         0.964134
 H        -2.598057        -1.750074         2.694473
 H        -3.735291        -0.786075         1.802799
 H        -1.281908         0.019761         1.950669
 H        -2.923349         1.066661        -0.292192
 H        -2.456810        -1.407610        -1.193063
 H        -1.144670        -0.559959        -1.954943
 H         0.793907        -2.462147         0.183793
 H        -0.346283         1.986993         0.567782
 H        -0.319432         1.536844        -1.201131
