19
Iteration:  3278
 C        -2.974461        -1.507931         1.466845
 C        -1.843781        -0.493162         1.191946
 C        -2.039910         0.358988        -0.223528
 C        -1.533458        -0.950555        -0.991003
 C        -0.646289        -1.122854         0.328153
 O        -0.143826        -2.411069         0.643766
 C         0.317195         0.015354         0.250719
 O         1.527357        -0.026980         0.048639
 C        -0.658834         1.244850        -0.099157
 H        -3.572867        -1.732297         0.528351
 H        -2.392080        -2.429337         1.773138
 H        -3.623021        -1.167403         2.296616
 H        -1.479345         0.176038         2.044123
 H        -3.002563         0.912504        -0.485786
 H        -2.201857        -1.818324        -1.049782
 H        -1.058606        -0.579366        -1.939799
 H         0.592652        -2.463199         0.034656
 H        -0.600266         1.857514         0.809445
 H        -0.379025         1.831379        -1.031624
