19
Iteration:  4744charge 0 multiplicity 1
 C        -2.982752        -1.429874         1.547275
 C        -1.787311        -0.577507         1.218468
 C        -1.994756         0.291925        -0.176673
 C        -1.542748        -0.877816        -1.023655
 C        -0.680255        -1.171865         0.317296
 O        -0.137061        -2.373854         0.514242
 C         0.302466         0.052642         0.191541
 O         1.515867        -0.012469         0.175895
 C        -0.666951         1.136151        -0.188835
 H        -3.491013        -1.920118         0.615653
 H        -2.699864        -2.104386         2.361862
 H        -3.796894        -0.825680         1.949172
 H        -1.473920         0.088007         2.146722
 H        -2.883398         0.894381        -0.355882
 H        -2.264835        -1.631064        -1.249121
 H        -0.956903        -0.751711        -2.151207
 H         0.768643        -2.154459         0.501420
 H        -0.757349         1.724655         0.686455
 H        -0.410934         1.889093        -1.030269
