19
Iteration:   619
 C        -2.990360        -1.270472         1.674057
 C        -1.731144        -0.668319         1.088651
 C        -2.068715         0.343860        -0.036452
 C        -1.702067        -0.890350        -1.088007
 C        -0.639988        -1.199819         0.209195
 O         0.021439        -2.395690         0.313511
 C         0.304560         0.001231         0.132470
 O         1.498867        -0.058988         0.382402
 C        -0.690269         1.147750        -0.116264
 H        -3.712447        -1.553796         0.823753
 H        -3.034695        -2.224244         2.176020
 H        -3.567896        -0.482756         2.231520
 H        -1.203057        -0.159945         1.949569
 H        -2.999857         0.940004         0.054296
 H        -2.563277        -1.594606        -1.229581
 H        -1.190120        -0.583742        -2.007864
 H         1.003281        -2.230860         0.315910
 H        -0.469673         2.145717         0.449352
 H        -0.500594         1.558627        -1.120479
