19
Iteration:  3454charge 0 multiplicity 1
 C        -2.771924        -1.444690         1.630803
 C        -1.759807        -0.365086         1.174040
 C        -1.960655         0.369989        -0.200363
 C        -1.696100        -0.899600        -1.011259
 C        -0.653792        -1.204580         0.105569
 O        -0.191955        -2.459885         0.384493
 C         0.240015         0.000418         0.167658
 O         1.413821         0.032445         0.582390
 C        -0.656828         1.083440        -0.309619
 H        -2.405481        -2.374610         1.172138
 H        -2.490760        -1.779945         2.688771
 H        -3.850309        -1.340803         1.456842
 H        -1.324149         0.352209         1.973850
 H        -2.809839         0.971884        -0.492524
 H        -2.519614        -1.717046        -1.126282
 H        -1.135609        -0.761830        -2.004668
 H         0.815455        -2.285070         0.364084
 H        -0.448571         1.931647         0.310116
 H        -0.417165         1.479877        -1.344920
