19
Iteration:  2830charge 0 multiplicity 1
 C        -2.883710        -1.468108         1.656526
 C        -1.808734        -0.510918         1.116425
 C        -2.023237         0.307602        -0.282790
 C        -1.486943        -0.865224        -1.090457
 C        -0.745844        -1.134819         0.291854
 O        -0.175951        -2.425359         0.562841
 C         0.301733         0.034946         0.240367
 O         1.510847         0.018354         0.386155
 C        -0.719220         1.166519        -0.344247
 H        -3.556646        -1.030261         2.312793
 H        -3.528206        -1.927636         0.783104
 H        -2.433201        -2.385184         2.093774
 H        -1.279391        -0.033461         2.062289
 H        -2.932413         0.835701        -0.631245
 H        -2.271093        -1.647018        -1.265260
 H        -0.745953        -0.671500        -1.889867
 H         0.745566        -2.371076         0.453082
 H        -0.594940         1.978461         0.379041
 H        -0.510537         1.521783        -1.384005
