19
Iteration:  1127charge 0 multiplicity 1
 C        -3.059782        -1.435875         1.429504
 C        -1.700802        -0.552685         1.207711
 C        -2.042753         0.455794        -0.027291
 C        -1.654033        -0.920271        -0.845511
 C        -0.552202        -1.182325         0.193533
 O        -0.071984        -2.475687         0.321125
 C         0.322655         0.002727         0.125691
 O         1.533567         0.006124         0.242217
 C        -0.715090         1.163886        -0.077911
 H        -3.678450        -1.557345         0.610268
 H        -2.887260        -2.210638         2.224023
 H        -3.709736        -0.576571         1.805120
 H        -1.407401         0.072148         2.077960
 H        -3.075717         0.911969        -0.101681
 H        -2.455651        -1.699780        -0.929989
 H        -1.235325        -0.831912        -1.801838
 H         0.935970        -2.435732         0.628083
 H        -0.586190         1.947496         0.675872
 H        -0.588418         1.628250        -1.133947
