19
Iteration:  3548
 C        -3.125478        -1.367592         1.595168
 C        -1.856225        -0.598191         1.068550
 C        -1.973694         0.334150        -0.155141
 C        -1.505645        -0.997138        -1.056235
 C        -0.645263        -1.166287         0.330882
 O        -0.075631        -2.382055         0.498399
 C         0.305611         0.085344         0.236911
 O         1.533761         0.002028         0.164414
 C        -0.659832         1.169909        -0.100414
 H        -3.706289        -1.789921         0.803454
 H        -2.794378        -2.264136         2.077877
 H        -3.676613        -0.674039         2.261894
 H        -1.407031        -0.000441         1.828527
 H        -2.941147         0.605496        -0.536824
 H        -2.279894        -1.693087        -1.122947
 H        -0.932804        -0.971004        -1.941567
 H         0.887816        -2.166507         0.406305
 H        -0.480609         1.904662         0.741024
 H        -0.605078         1.722343        -1.017984
