19
Iteration:  1146
 C        -2.962349        -1.380560         1.559349
 C        -1.788890        -0.529899         1.190269
 C        -1.913923         0.301025        -0.051043
 C        -1.662010        -0.906469        -0.953682
 C        -0.672787        -1.177913         0.275314
 O        -0.123648        -2.446557         0.257232
 C         0.298045         0.017708         0.167084
 O         1.509344         0.029029         0.306390
 C        -0.673228         1.161112        -0.138946
 H        -3.397338        -1.644003         0.590049
 H        -2.565518        -2.135247         2.158969
 H        -3.831589        -0.894156         2.007015
 H        -1.276369         0.047185         2.015503
 H        -2.929500         0.719345        -0.220347
 H        -2.471117        -1.633882        -0.894176
 H        -1.246859        -0.648130        -1.960165
 H         0.906798        -2.442276         0.254829
 H        -0.696999         1.972055         0.607835
 H        -0.295221         1.632101        -1.017971
