19
Iteration:    17charge 0 multiplicity 1
 C        -2.874884        -1.583556         1.506246
 C        -1.834978        -0.405634         1.251589
 C        -2.056384         0.485013         0.004146
 C        -1.664181        -0.724651        -0.884170
 C        -0.698547        -1.143146         0.328406
 O        -0.166279        -2.573815         0.270808
 C         0.344789        -0.025329         0.139929
 O         1.560076        -0.028730         0.269037
 C        -0.651491         1.149524        -0.223421
 H        -2.195803        -2.398343         1.787547
 H        -3.665060        -1.241114         2.205998
 H        -3.366214        -1.855541         0.554182
 H        -1.516881         0.004638         2.225807
 H        -2.929821         1.163077        -0.108356
 H        -2.357529        -1.572473        -1.100599
 H        -1.204829        -0.558812        -1.869928
 H         0.845659        -2.433391         0.205327
 H        -0.310867         2.029496         0.358027
 H        -0.509617         1.588140        -1.225349
