19
Iteration:  4190
 C        -3.037851        -1.418045         1.383332
 C        -1.826127        -0.609023         1.105650
 C        -1.962973         0.376117        -0.131768
 C        -1.607415        -0.945089        -0.902967
 C        -0.597821        -1.164338         0.269458
 O        -0.049129        -2.449090         0.599391
 C         0.305760         0.020820         0.096960
 O         1.527170         0.023161         0.125426
 C        -0.701727         1.224043        -0.027562
 H        -3.649442        -1.472758         0.452780
 H        -3.043116        -2.303487         2.071346
 H        -3.664435        -0.718819         2.042588
 H        -1.689195        -0.308988         2.118455
 H        -2.900229         0.879220        -0.332573
 H        -2.402812        -1.634403        -1.126407
 H        -1.028780        -0.748887        -1.756241
 H         0.876128        -2.291224         0.749737
 H        -0.561849         1.937635         0.837208
 H        -0.574115         1.774239        -1.032552
