19
Iteration:  1407charge 0 multiplicity 1
 C        -2.962268        -1.402218         1.714371
 C        -1.865269        -0.609274         1.091402
 C        -1.971954         0.351673        -0.114087
 C        -1.420524        -0.768794        -1.086111
 C        -0.661146        -1.218938         0.206280
 O        -0.213156        -2.500827         0.444066
 C         0.256575        -0.023070         0.153904
 O         1.483805         0.072627         0.144048
 C        -0.648136         1.133929         0.021783
 H        -3.809094        -1.887925         1.020992
 H        -2.485007        -2.173942         2.294646
 H        -3.639234        -0.787455         2.214152
 H        -1.321867         0.002398         1.875982
 H        -2.725744         1.066211        -0.502223
 H        -2.138634        -1.563024        -1.412204
 H        -0.795585        -0.486764        -1.983130
 H         0.782431        -2.457345         0.630901
 H        -0.668991         2.066081         0.668706
 H        -0.396268         1.622706        -0.930486
