19
Iteration:  1919
 C        -3.018037        -1.430738         1.687828
 C        -1.912022        -0.610153         1.092614
 C        -1.901128         0.399949        -0.165663
 C        -1.499025        -0.862630        -1.107717
 C        -0.721257        -1.232843         0.224383
 O        -0.046562        -2.402243         0.536281
 C         0.260402         0.005477         0.101083
 O         1.489217        -0.027529         0.069769
 C        -0.635637         1.186160         0.103563
 H        -3.689504        -1.798727         0.808377
 H        -2.764077        -2.171988         2.387153
 H        -3.718272        -0.728932         2.103831
 H        -1.485521        -0.070431         2.062069
 H        -2.816672         1.036864        -0.306240
 H        -2.346965        -1.414759        -1.486851
 H        -0.943843        -0.629143        -2.003612
 H         0.873009        -2.277630         0.125293
 H        -0.749658         1.657991         1.160087
 H        -0.451915         1.918999        -0.644396
