19
Iteration:  2000charge 0 multiplicity 1
 C        -2.906144        -1.583370         1.467008
 C        -1.686810        -0.571505         1.182097
 C        -1.992074         0.524784        -0.112764
 C        -1.830762        -0.725623        -0.979896
 C        -0.671847        -1.160151         0.252417
 O        -0.107529        -2.430741         0.448783
 C         0.307424        -0.043993         0.102234
 O         1.514023        -0.079141         0.287895
 C        -0.627875         1.210446        -0.159968
 H        -2.901461        -2.414826         0.836446
 H        -2.651448        -2.099090         2.509233
 H        -3.916086        -1.207823         1.648275
 H        -1.149982        -0.015622         2.083082
 H        -2.965255         0.957627        -0.015986
 H        -2.678126        -1.413456        -0.885543
 H        -1.327284        -0.745221        -1.953806
 H         0.815498        -2.179801         0.709753
 H        -0.567018         1.918163         0.595562
 H        -0.400107         1.665899        -1.190771
