19
Iteration:  4508
 C        -2.947539        -1.395597         1.657269
 C        -1.854443        -0.513564         1.109355
 C        -2.020212         0.359737        -0.111591
 C        -1.582607        -0.905408        -1.033391
 C        -0.673075        -1.178644         0.173164
 O        -0.048534        -2.470418         0.411478
 C         0.293850         0.020634         0.186336
 O         1.509290        -0.043872         0.359102
 C        -0.707143         1.205941        -0.191041
 H        -3.377351        -2.118331         1.055544
 H        -2.577080        -1.844626         2.566561
 H        -3.806997        -0.761598         1.886302
 H        -1.520136         0.198242         1.964115
 H        -2.923892         0.956003        -0.437239
 H        -2.293032        -1.779973        -1.144117
 H        -1.242212        -0.516118        -2.079957
 H         0.992069        -2.456425         0.339616
 H        -0.376537         2.112421         0.374144
 H        -0.487406         1.431274        -1.191276
