19
Iteration:  4424charge 0 multiplicity 1
 C        -3.070648        -1.573253         1.364632
 C        -1.905257        -0.584220         1.209418
 C        -1.982922         0.402367        -0.031549
 C        -1.478744        -0.876679        -0.943242
 C        -0.695735        -1.099815         0.315936
 O        -0.128221        -2.305053         0.662977
 C         0.321032         0.008401         0.115626
 O         1.545114        -0.078722         0.006248
 C        -0.622090         1.203265        -0.140603
 H        -3.547221        -2.040848         0.373851
 H        -2.630003        -2.493407         1.961141
 H        -3.738769        -1.134310         2.162993
 H        -1.732246        -0.004387         2.110572
 H        -2.936814         0.934998        -0.151392
 H        -2.311182        -1.582966        -1.124357
 H        -0.960080        -0.706464        -1.783496
 H         0.849034        -2.014267         0.599745
 H        -0.313210         1.923655         0.700318
 H        -0.272732         1.614077        -1.099844
