19
Iteration:   887charge 0 multiplicity 1
 C        -2.817901        -1.542024         1.484340
 C        -1.688623        -0.507680         1.194141
 C        -1.956991         0.415166        -0.118692
 C        -1.745329        -0.840848        -0.958071
 C        -0.668416        -1.156663         0.198685
 O        -0.246190        -2.455810         0.422929
 C         0.324573        -0.020657         0.075058
 O         1.495652         0.071570         0.381903
 C        -0.627004         1.120467        -0.225875
 H        -3.435963        -1.995287         0.703220
 H        -2.504053        -2.345283         2.246993
 H        -3.641830        -1.152922         2.133890
 H        -1.517173         0.030930         2.184304
 H        -2.854663         1.072199        -0.003296
 H        -2.443579        -1.676918        -0.891513
 H        -1.279907        -0.449616        -1.864029
 H         0.780638        -2.532461         0.549184
 H        -0.550937         1.884167         0.572240
 H        -0.522757         1.815261        -1.166594
