19
Iteration:  1702
 C        -2.863867        -1.505218         1.646046
 C        -1.808759        -0.544864         1.108083
 C        -2.025786         0.395980        -0.154349
 C        -1.714374        -0.796350        -1.073071
 C        -0.648864        -1.157257         0.123445
 O        -0.213572        -2.438738         0.491298
 C         0.372900         0.018818         0.104748
 O         1.569775        -0.031550         0.305298
 C        -0.655870         1.192374        -0.047238
 H        -2.984056        -2.311544         0.754073
 H        -2.594291        -2.080293         2.521072
 H        -3.835740        -1.089493         1.936037
 H        -1.359512         0.057120         1.862534
 H        -2.974012         0.987232        -0.126036
 H        -2.402965        -1.629507        -1.101632
 H        -1.312608        -0.642662        -2.077378
 H         0.760460        -2.494273         0.415176
 H        -0.558151         1.938011         0.785467
 H        -0.438363         1.664079        -1.066247
