19
Iteration:  4603charge 0 multiplicity 1
 C        -2.851641        -1.438381         1.710405
 C        -1.827806        -0.492848         1.154470
 C        -1.996947         0.366610        -0.201956
 C        -1.488971        -0.900526        -1.028479
 C        -0.682793        -1.149588         0.129612
 O        -0.160893        -2.468812         0.437492
 C         0.262509        -0.033610         0.109796
 O         1.438953        -0.011863         0.398543
 C        -0.665318         1.224971        -0.213263
 H        -3.610818        -1.845962         0.924079
 H        -2.232697        -2.175505         2.212463
 H        -3.584478        -1.047489         2.415762
 H        -1.382233         0.027386         1.954637
 H        -2.872417         0.849302        -0.658561
 H        -2.303737        -1.528278        -1.164455
 H        -1.161211        -0.638402        -1.960353
 H         0.728271        -2.483503         0.830703
 H        -0.650025         1.993388         0.540750
 H        -0.505496         1.732608        -1.256984
