19
Iteration:  4500
 C        -2.989024        -1.420487         1.681222
 C        -1.871033        -0.543056         1.066701
 C        -2.045810         0.353482        -0.197057
 C        -1.592471        -0.853360        -0.989826
 C        -0.649089        -1.159755         0.216551
 O        -0.095687        -2.467818         0.460209
 C         0.330320         0.003732         0.147210
 O         1.550562        -0.028830         0.333676
 C        -0.672638         1.229457        -0.199338
 H        -3.285000        -2.277977         1.111685
 H        -2.593634        -1.994744         2.557377
 H        -3.800837        -0.792060         2.042137
 H        -1.329051        -0.060341         1.897879
 H        -3.023673         0.807625        -0.354873
 H        -2.306651        -1.690293        -1.228378
 H        -1.070874        -0.610460        -1.862732
 H         0.846760        -2.275946         0.112283
 H        -0.567395         2.015833         0.608095
 H        -0.405844         1.617652        -1.149450
