19
Iteration:  2625
 C        -2.864700        -1.350474         1.569422
 C        -1.737087        -0.483027         1.107867
 C        -1.953709         0.310714        -0.172487
 C        -1.703542        -0.937314        -0.992385
 C        -0.626517        -1.203646         0.186000
 O        -0.082916        -2.472671         0.354892
 C         0.258496        -0.005307         0.083839
 O         1.388593         0.031762         0.517410
 C        -0.641071         1.194003        -0.186701
 H        -2.677218        -2.362094         1.136755
 H        -2.763135        -1.426922         2.695163
 H        -3.833508        -0.914597         1.292189
 H        -1.253397         0.115711         1.963590
 H        -2.966004         0.788554        -0.385291
 H        -2.468444        -1.686070        -0.722893
 H        -1.408810        -0.896389        -2.043218
 H         0.778115        -2.344130         0.669553
 H        -0.662898         1.931243         0.614209
 H        -0.553406         1.662847        -1.182807
