19
Iteration:  3199charge 0 multiplicity 1
 C        -2.899392        -1.406290         1.703826
 C        -1.898471        -0.272750         1.136227
 C        -1.992332         0.351106        -0.171545
 C        -1.619595        -1.041622        -0.955028
 C        -0.673863        -1.166228         0.129421
 O         0.006239        -2.434703         0.254073
 C         0.243406        -0.003960         0.213501
 O         1.415017        -0.039745         0.488718
 C        -0.611326         1.144028        -0.262210
 H        -2.944257        -2.228632         1.098631
 H        -2.585289        -1.850990         2.733616
 H        -3.999121        -1.134275         1.567098
 H        -1.377807         0.298984         2.023135
 H        -2.950755         0.961533        -0.412962
 H        -2.516760        -1.674281        -0.887983
 H        -1.171509        -1.039965        -2.024191
 H         1.036283        -2.222964         0.323431
 H        -0.684455         1.913136         0.543651
 H        -0.263752         1.432617        -1.238364
