19
Iteration:   982
 C        -2.927497        -1.370691         1.579101
 C        -1.714695        -0.555642         1.110593
 C        -1.978840         0.370245        -0.097619
 C        -1.657841        -0.906718        -0.936206
 C        -0.699801        -1.209384         0.234270
 O        -0.083922        -2.444507         0.295101
 C         0.281225        -0.052552         0.150712
 O         1.483880         0.016058         0.328826
 C        -0.678788         1.203862        -0.105647
 H        -3.533319        -1.930369         0.751708
 H        -2.654554        -2.009125         2.437166
 H        -3.843296        -0.724828         1.927913
 H        -1.391255        -0.037651         2.029696
 H        -2.908956         0.925543        -0.210455
 H        -2.385185        -1.679351        -0.844533
 H        -1.140560        -0.802813        -1.916152
 H         0.872682        -2.109531         0.095107
 H        -0.641268         1.980924         0.744319
 H        -0.391323         1.603668        -1.082254
