19
Iteration:  2176charge 0 multiplicity 1
 C        -2.811889        -1.503205         1.501604
 C        -1.815532        -0.495694         1.134601
 C        -1.948035         0.374375        -0.104921
 C        -1.573439        -0.781828        -1.016200
 C        -0.687352        -1.164600         0.232885
 O        -0.189249        -2.437092         0.508890
 C         0.266502        -0.001532         0.132025
 O         1.451364        -0.135186         0.054405
 C        -0.695959         1.266684         0.066603
 H        -3.766149        -1.360832         1.005973
 H        -2.366102        -2.544132         1.511833
 H        -3.109642        -1.317257         2.583915
 H        -1.236918        -0.058842         1.991403
 H        -2.885719         0.908917        -0.356978
 H        -2.274228        -1.617448        -1.015045
 H        -1.155590        -0.679193        -2.038051
 H         0.800894        -2.319710         0.851777
 H        -0.569835         1.837866         0.968678
 H        -0.582824         2.087254        -0.744302
