19
Iteration:  3775
 C        -2.780179        -1.426850         1.662238
 C        -1.785152        -0.492428         1.018983
 C        -1.964299         0.370024        -0.265588
 C        -1.715330        -0.884621        -1.043901
 C        -0.680586        -1.192895         0.145000
 O        -0.118100        -2.445870         0.456037
 C         0.245935         0.020508         0.167247
 O         1.418450        -0.005732         0.500158
 C        -0.652891         1.166603        -0.248768
 H        -3.470862        -2.087235         1.034273
 H        -2.247040        -2.090578         2.277165
 H        -3.323133        -0.967208         2.481010
 H        -1.435200         0.173468         1.753241
 H        -2.830438         0.985140        -0.378704
 H        -2.546127        -1.590385        -0.962136
 H        -1.017156        -0.880600        -1.995539
 H         0.818431        -2.445233         0.858306
 H        -0.832808         1.846091         0.577030
 H        -0.072739         1.672700        -1.028392
