19
Iteration:  4154
 C        -2.991430        -1.594745         1.385215
 C        -1.933010        -0.536884         1.180305
 C        -2.006571         0.374169        -0.125571
 C        -1.473892        -0.760329        -0.953178
 C        -0.715600        -1.140826         0.429985
 O        -0.053573        -2.339779         0.661851
 C         0.262178         0.015722         0.124322
 O         1.465075        -0.103734         0.003449
 C        -0.577651         1.184912        -0.052349
 H        -3.477438        -2.151798         0.471403
 H        -2.754573        -2.342187         2.122336
 H        -3.762323        -0.839494         1.686825
 H        -1.494380        -0.062641         2.020550
 H        -2.855515         0.934834        -0.414324
 H        -2.178021        -1.556849        -1.316970
 H        -0.755880        -0.511730        -1.806828
 H         0.806718        -2.351796         0.278980
 H        -0.629257         1.913916         0.665026
 H        -0.387758         1.673813        -1.069028
