19
Iteration:  3761
 C        -2.779997        -1.370172         1.675984
 C        -1.741677        -0.455397         1.080024
 C        -2.027874         0.381625        -0.266904
 C        -1.714961        -0.945070        -1.085015
 C        -0.687027        -1.219521         0.139962
 O        -0.049439        -2.412436         0.404217
 C         0.254791        -0.043468         0.133044
 O         1.416384        -0.022283         0.570887
 C        -0.641164         1.154330        -0.206205
 H        -3.322434        -1.966895         0.828934
 H        -2.293710        -2.255898         2.279404
 H        -3.573040        -0.724536         2.147284
 H        -1.233241         0.058840         1.995123
 H        -2.962131         0.931066        -0.414236
 H        -2.528577        -1.629253        -1.010510
 H        -1.576145        -0.800796        -2.237981
 H         0.610018        -2.134488         1.033057
 H        -0.493599         1.892831         0.546225
 H        -0.576862         1.668595        -1.276330
