19
Iteration:  3591
 C        -2.983928        -1.450373         1.287982
 C        -1.861567        -0.537285         1.155299
 C        -1.925574         0.368293        -0.071906
 C        -1.532534        -0.897230        -0.962411
 C        -0.692620        -1.184912         0.367221
 O        -0.051009        -2.370867         0.736207
 C         0.253336         0.020468         0.137219
 O         1.458201        -0.063572        -0.003191
 C        -0.666810         1.188591        -0.107351
 H        -3.553480        -1.688439         0.314180
 H        -2.567786        -2.425730         1.564777
 H        -3.663811        -1.121812         2.129722
 H        -1.532168        -0.072488         2.174533
 H        -2.809483         1.000588        -0.005133
 H        -2.387165        -1.503750        -1.094541
 H        -1.071562        -0.710425        -1.940214
 H         0.942932        -2.115052         0.801336
 H        -0.700283         1.904489         0.819377
 H        -0.390377         1.705361        -1.024140
