19
Iteration:  3329
 C        -2.947128        -1.548878         1.354949
 C        -1.891378        -0.536316         1.171689
 C        -2.000588         0.344775        -0.138661
 C        -1.661028        -0.795574        -1.032578
 C        -0.658568        -1.153652         0.300169
 O        -0.063806        -2.362701         0.812795
 C         0.310770        -0.016701         0.102593
 O         1.510041        -0.069125         0.010068
 C        -0.616952         1.181323        -0.048476
 H        -3.578131        -1.428288         0.516014
 H        -2.495283        -2.584339         1.390580
 H        -3.437486        -1.455852         2.347205
 H        -1.714561         0.205201         1.958093
 H        -2.861718         1.066011        -0.118363
 H        -2.497332        -1.388352        -1.358131
 H        -0.982524        -0.631232        -1.922008
 H         0.844674        -2.051663         0.999422
 H        -0.618872         2.045068         0.662021
 H        -0.354210         1.542868        -1.012790
