19
Iteration:  4576charge 0 multiplicity 1
 C        -2.852033        -1.372421         1.675725
 C        -1.756579        -0.565502         1.150617
 C        -2.038975         0.338902        -0.211214
 C        -1.683086        -0.856995        -1.074775
 C        -0.696974        -1.157671         0.187097
 O        -0.063348        -2.442676         0.375429
 C         0.263827        -0.030848         0.222413
 O         1.448340         0.022103         0.496360
 C        -0.622565         1.111032        -0.289281
 H        -3.536284        -1.704459         0.981710
 H        -2.514589        -2.166051         2.376320
 H        -3.493999        -0.671952         2.232512
 H        -1.286671         0.015478         2.044071
 H        -2.932914         0.947392        -0.427210
 H        -2.528750        -1.636456        -1.211599
 H        -1.291363        -0.627342        -2.144395
 H         0.889527        -2.337042         0.309137
 H        -0.616312         2.032011         0.351923
 H        -0.347216         1.390279        -1.241944
