19
Iteration:  2458charge 0 multiplicity 1
 C        -3.079817        -1.427739         1.451747
 C        -1.814476        -0.561364         1.181906
 C        -1.980086         0.377708        -0.031269
 C        -1.545707        -0.914825        -0.908454
 C        -0.646979        -1.164610         0.326858
 O        -0.124661        -2.450475         0.480156
 C         0.312546        -0.009842         0.098044
 O         1.536239         0.028156         0.033095
 C        -0.631974         1.220572        -0.022182
 H        -3.782011        -0.897504         2.031047
 H        -3.456555        -1.664178         0.342411
 H        -2.884613        -2.422386         1.957587
 H        -1.311054        -0.204592         2.219846
 H        -2.960659         0.776809        -0.205824
 H        -2.326819        -1.689193        -0.973358
 H        -1.078710        -0.520019        -1.917082
 H         0.788989        -2.438537         0.407194
 H        -0.669687         1.884595         0.839580
 H        -0.398151         1.808231        -0.935904
