19
Iteration:  3125charge 0 multiplicity 1
 C        -2.807289        -1.376235         1.558567
 C        -1.753843        -0.518506         1.099177
 C        -1.996528         0.394830        -0.145952
 C        -1.638553        -0.956374        -0.985292
 C        -0.640899        -1.163259         0.193270
 O        -0.205928        -2.556725         0.428568
 C         0.285893         0.021649         0.127260
 O         1.465097         0.145116         0.486675
 C        -0.690265         1.127703        -0.303880
 H        -3.501838        -1.736955         0.794993
 H        -2.282998        -2.293254         2.050067
 H        -3.429941        -0.999216         2.384249
 H        -1.435769        -0.030894         2.006005
 H        -2.877800         1.066091        -0.297157
 H        -2.226946        -1.839461        -1.047002
 H        -1.199767        -0.751029        -1.977818
 H         0.689652        -2.582420         0.902527
 H        -0.520726         1.914397         0.482025
 H        -0.601842         1.597902        -1.317793
