19
Iteration:  1898charge 0 multiplicity 1
 C        -3.013793        -1.477921         1.584407
 C        -1.790998        -0.608314         1.057816
 C        -2.027760         0.377892        -0.110072
 C        -1.555229        -0.700058        -1.062366
 C        -0.637529        -1.161871         0.198590
 O        -0.060125        -2.382553         0.595380
 C         0.271465        -0.012656         0.137957
 O         1.499975        -0.156951         0.107500
 C        -0.693154         1.212868        -0.031795
 H        -3.774055        -1.955656         0.796156
 H        -2.658061        -2.336054         2.135711
 H        -3.643902        -0.945713         2.267839
 H        -1.212048        -0.087948         1.896241
 H        -2.990331         0.903188        -0.042777
 H        -2.229136        -1.527901        -1.240506
 H        -1.189323        -0.344445        -2.008159
 H         0.814454        -2.080182         0.754899
 H        -0.565258         1.817522         0.918815
 H        -0.359416         1.739302        -0.884428
