19
Iteration:   104
 C        -2.955392        -1.405928         1.783377
 C        -1.847228        -0.620925         1.130896
 C        -1.937935         0.319772        -0.187772
 C        -1.602393        -0.819023        -0.983129
 C        -0.764520        -1.163675         0.169097
 O        -0.025256        -2.361311         0.169744
 C         0.288209         0.076028         0.228712
 O         1.489008        -0.194806         0.377238
 C        -0.637278         1.226848        -0.115086
 H        -3.011475        -2.504342         1.693147
 H        -2.886811        -1.076363         2.856138
 H        -4.047657        -1.123886         1.651612
 H        -1.333669        -0.009414         1.880895
 H        -2.929098         0.827390        -0.444912
 H        -2.520799        -1.514828        -1.195757
 H        -1.176920        -0.821399        -2.003314
 H         0.800856        -1.934204         0.084009
 H        -0.658125         2.090995         0.617684
 H        -0.309108         1.712528        -1.068660
