19
Iteration:  3604charge 0 multiplicity 1
 C        -3.007358        -1.599954         1.278229
 C        -1.764448        -0.555307         1.135023
 C        -1.963847         0.403041        -0.101722
 C        -1.608692        -0.856418        -0.895930
 C        -0.652297        -1.100546         0.331840
 O        -0.107871        -2.285092         0.757717
 C         0.269515         0.002112         0.122239
 O         1.484416        -0.107398         0.007538
 C        -0.616319         1.219240        -0.072628
 H        -3.655800        -1.683470         0.459727
 H        -2.710975        -2.541512         1.785926
 H        -3.752237        -1.154697         2.003136
 H        -1.622638        -0.115101         2.147179
 H        -2.858038         0.865526        -0.551918
 H        -2.216302        -1.763516        -0.944755
 H        -1.080766        -0.765577        -1.765340
 H         0.848256        -2.321486         0.536107
 H        -0.531871         2.051294         0.689437
 H        -0.455771         1.680402        -1.024105
