19
Iteration:  1139
 C        -2.950119        -1.330614         1.467076
 C        -1.770831        -0.537610         1.214595
 C        -2.026594         0.330176        -0.067716
 C        -1.642414        -0.913277        -0.884565
 C        -0.646639        -1.173687         0.240248
 O        -0.116694        -2.471156         0.261365
 C         0.306236         0.019543         0.173885
 O         1.543347         0.025139         0.286423
 C        -0.687408         1.152945        -0.110071
 H        -3.356613        -1.778049         0.601554
 H        -2.763346        -2.251770         2.115128
 H        -3.689661        -0.756484         2.075312
 H        -1.387185        -0.198338         2.175413
 H        -2.895545         0.979222        -0.249384
 H        -2.346995        -1.766632        -0.716696
 H        -1.303870        -0.821246        -1.871276
 H         0.884933        -2.324685         0.321263
 H        -0.609411         1.942442         0.646101
 H        -0.478188         1.656335        -1.127040
