19
Iteration:  3328
 C        -2.936335        -1.554999         1.365753
 C        -1.898971        -0.535171         1.172659
 C        -2.008502         0.343968        -0.142772
 C        -1.657543        -0.790170        -1.036164
 C        -0.661014        -1.154857         0.303500
 O        -0.067377        -2.367774         0.813937
 C         0.306188        -0.006364         0.095914
 O         1.513096        -0.072557         0.008443
 C        -0.610667         1.187059        -0.047932
 H        -3.603214        -1.403132         0.462541
 H        -2.496979        -2.584862         1.381119
 H        -3.455297        -1.462179         2.352451
 H        -1.707105         0.177195         1.962508
 H        -2.858149         1.057756        -0.127354
 H        -2.486044        -1.403694        -1.350465
 H        -0.975750        -0.619537        -1.892137
 H         0.869172        -2.057312         1.018841
 H        -0.649972         2.053571         0.675113
 H        -0.300415         1.523993        -1.028063
