19
Iteration:  1572charge 0 multiplicity 1
 C        -3.023091        -1.482556         1.642445
 C        -1.803731        -0.554628         1.128291
 C        -1.949656         0.362029        -0.089642
 C        -1.457377        -0.826264        -0.983984
 C        -0.677232        -1.181232         0.224993
 O        -0.150889        -2.390893         0.383959
 C         0.277210         0.023174         0.175277
 O         1.482796        -0.089904         0.154931
 C        -0.709747         1.210444        -0.052369
 H        -3.541435        -1.871263         0.695545
 H        -2.499824        -2.314415         2.093539
 H        -3.761719        -0.925257         2.202721
 H        -1.237076        -0.030145         1.982561
 H        -2.814348         0.949962        -0.421357
 H        -2.136872        -1.630953        -1.291828
 H        -0.859934        -0.564655        -1.894933
 H         0.704856        -2.174470         0.928210
 H        -0.645592         2.019007         0.714768
 H        -0.533503         1.733451        -1.035356
