19
Iteration:   305
 C        -3.066971        -1.329922         1.542577
 C        -1.751056        -0.589708         1.187843
 C        -1.968506         0.331317        -0.014904
 C        -1.587512        -0.892821        -0.985938
 C        -0.632010        -1.147348         0.184915
 O        -0.099205        -2.458391         0.350272
 C         0.342042        -0.018343         0.150582
 O         1.537754         0.025501         0.303565
 C        -0.730684         1.147522        -0.106204
 H        -3.476365        -1.755488         0.605109
 H        -2.814232        -2.033403         2.352577
 H        -3.814368        -0.607259         1.873282
 H        -1.222395        -0.206453         2.063559
 H        -2.865728         0.915631        -0.102159
 H        -2.272637        -1.691543        -1.095376
 H        -1.088739        -0.695873        -1.910141
 H         0.679260        -2.520980        -0.145698
 H        -0.736720         1.976293         0.636257
 H        -0.797715         1.648920        -1.101698
