19
Iteration:   510
 C        -2.968560        -1.527223         1.399493
 C        -1.703812        -0.610061         1.172165
 C        -2.048055         0.376932        -0.011171
 C        -1.697113        -0.779049        -1.019465
 C        -0.639126        -1.135649         0.217909
 O        -0.149555        -2.411660         0.664373
 C         0.289912         0.012084         0.064962
 O         1.500165        -0.047419         0.123588
 C        -0.578661         1.206542        -0.059138
 H        -3.094050        -2.337167         0.627854
 H        -2.851288        -2.052808         2.347864
 H        -3.837383        -0.778277         1.543790
 H        -1.251817        -0.115017         2.093585
 H        -2.801316         1.135660        -0.013738
 H        -2.473141        -1.546116        -1.220940
 H        -1.218328        -0.466615        -2.033944
 H         0.821447        -2.477380         0.308554
 H        -0.561649         2.007237         0.765730
 H        -0.333473         1.565086        -1.058943
