19
Iteration:  3302
 C        -2.942069        -1.628235         1.432691
 C        -1.875496        -0.560327         1.134784
 C        -1.919446         0.401332        -0.166529
 C        -1.433140        -0.831347        -0.947037
 C        -0.646086        -1.084981         0.348545
 O        -0.221083        -2.317667         0.720833
 C         0.275643         0.007397         0.124078
 O         1.499316        -0.115498        -0.000101
 C        -0.701569         1.236111        -0.102993
 H        -3.833336        -1.781645         0.594730
 H        -2.383977        -2.542847         1.579134
 H        -3.306940        -1.361872         2.434103
 H        -1.759659         0.144825         1.939197
 H        -2.804505         0.982481        -0.229405
 H        -2.315817        -1.498033        -1.029954
 H        -0.815248        -0.761329        -1.824170
 H         0.744982        -2.312936         0.602611
 H        -0.558884         1.880632         0.777240
 H        -0.649125         1.817181        -1.116966
