19
Iteration:  2390charge 0 multiplicity 1
 C        -2.902374        -1.488693         1.643481
 C        -1.807409        -0.525720         1.154866
 C        -1.988062         0.399683        -0.110449
 C        -1.576608        -0.762273        -0.982120
 C        -0.696721        -1.155187         0.237038
 O        -0.114663        -2.349717         0.301653
 C         0.248668        -0.067786         0.204536
 O         1.458736        -0.182157         0.277708
 C        -0.670717         1.255760        -0.174223
 H        -3.907993        -1.606050         1.269646
 H        -2.502370        -2.514930         1.401915
 H        -3.029144        -1.544617         2.706778
 H        -1.423815         0.080435         2.077913
 H        -2.879732         1.027135        -0.150064
 H        -2.200766        -1.669463        -1.017092
 H        -0.928101        -0.518958        -1.876305
 H         0.876591        -2.158700         0.377728
 H        -0.611804         2.108701         0.520170
 H        -0.320422         1.549481        -1.122695
