19
Iteration:  4540charge 0 multiplicity 1
 C        -2.898278        -1.319630         1.573232
 C        -1.686880        -0.522176         1.171911
 C        -2.008159         0.383342        -0.131920
 C        -1.724606        -1.004611        -0.947291
 C        -0.707878        -1.249144         0.234000
 O         0.012327        -2.395466         0.293066
 C         0.263051        -0.009296         0.045862
 O         1.404616        -0.034600         0.530949
 C        -0.630091         1.180105        -0.277550
 H        -3.303029        -1.896555         0.668179
 H        -2.683782        -1.937811         2.455040
 H        -3.713813        -0.606839         1.895000
 H        -1.353569         0.054012         2.106659
 H        -2.982166         0.913724        -0.390388
 H        -2.544792        -1.785999        -0.932885
 H        -1.366641        -0.724564        -2.041614
 H         0.765040        -2.196242         0.796567
 H        -0.433374         1.876895         0.607867
 H        -0.472655         1.790154        -1.226855
