19
Iteration:  2933
 C        -2.862136        -1.403122         1.582297
 C        -1.864066        -0.459221         1.091227
 C        -1.950284         0.345187        -0.307584
 C        -1.604885        -1.015816        -0.986632
 C        -0.685241        -1.206175         0.205101
 O        -0.026784        -2.367223         0.514474
 C         0.222792         0.056982         0.223892
 O         1.413843        -0.034993         0.445122
 C        -0.644092         1.194482        -0.283725
 H        -3.459780        -0.957048         2.466422
 H        -3.576413        -1.600862         0.867078
 H        -2.496712        -2.305839         1.998088
 H        -1.464846         0.035354         1.971629
 H        -2.950201         0.781256        -0.420702
 H        -2.451066        -1.695910        -0.839245
 H        -1.180331        -1.156100        -2.017730
 H         0.956161        -2.228960         0.223329
 H        -0.814072         1.958356         0.460502
 H        -0.235921         1.574253        -1.211986
