19
Iteration:  2862
 C        -2.856410        -1.326408         1.578972
 C        -1.758749        -0.501045         1.138144
 C        -1.961979         0.314057        -0.289436
 C        -1.648269        -1.051135        -0.981503
 C        -0.648160        -1.208870         0.183993
 O        -0.164178        -2.526407         0.401075
 C         0.306429         0.039361         0.144082
 O         1.457368         0.208113         0.548084
 C        -0.669394         1.133146        -0.300168
 H        -3.320162        -1.083474         2.478880
 H        -3.760407        -1.393586         0.847778
 H        -2.331374        -2.287301         1.861110
 H        -1.260568         0.160208         1.921289
 H        -2.859885         0.865975        -0.572209
 H        -2.549940        -1.705481        -0.901189
 H        -1.296944        -1.146970        -2.007681
 H         0.466916        -2.399594         1.202260
 H        -0.680646         1.697290         0.656778
 H        -0.394009         1.714314        -1.222273
