19
Iteration:  1321charge 0 multiplicity 1
 C        -3.069169        -1.507267         1.627500
 C        -1.894103        -0.612076         1.091475
 C        -1.993016         0.407020        -0.102296
 C        -1.526300        -0.785688        -1.060211
 C        -0.718733        -1.154421         0.214189
 O         0.008284        -2.313416         0.489853
 C         0.291113        -0.002520         0.130599
 O         1.489322        -0.170440         0.144356
 C        -0.604447         1.215497        -0.008143
 H        -3.598001        -2.243622         0.922780
 H        -2.613911        -2.153939         2.359055
 H        -3.749271        -0.815145         2.163243
 H        -1.541842        -0.069160         1.914989
 H        -2.941873         0.944715        -0.253354
 H        -2.359726        -1.454348        -1.294992
 H        -1.127043        -0.700710        -2.068614
 H         0.987745        -1.976006         0.534299
 H        -0.643471         1.827502         0.884356
 H        -0.330258         1.766400        -0.890877
