19
Iteration:  3166charge 0 multiplicity 1
 C        -2.774486        -1.423322         1.737653
 C        -1.745284        -0.486335         0.978315
 C        -2.054949         0.368378        -0.198355
 C        -1.631352        -0.930716        -1.064079
 C        -0.686898        -1.188507         0.099334
 O        -0.091799        -2.452000         0.361964
 C         0.243127         0.040152         0.163979
 O         1.405477        -0.035014         0.605708
 C        -0.661264         1.182120        -0.292280
 H        -3.056990        -2.320375         1.314771
 H        -2.448539        -1.632898         2.812725
 H        -3.683113        -0.772749         1.964787
 H        -1.165950         0.031135         1.836458
 H        -2.996869         0.970635        -0.258564
 H        -2.487081        -1.634753        -1.007457
 H        -1.311035        -0.821885        -2.142714
 H         0.684788        -2.319012         0.893544
 H        -0.550393         2.060810         0.392260
 H        -0.408422         1.600312        -1.244878
