19
Iteration:  4135charge 0 multiplicity 1
 C        -2.995607        -1.598916         1.468375
 C        -1.933316        -0.543307         1.094339
 C        -1.934929         0.460755        -0.125347
 C        -1.489015        -0.796051        -1.040642
 C        -0.642091        -1.141345         0.302841
 O        -0.094674        -2.345527         0.698801
 C         0.295969         0.018033         0.166049
 O         1.481589        -0.166673        -0.001615
 C        -0.692993         1.262859        -0.027071
 H        -3.169329        -2.344312         0.585591
 H        -2.406188        -2.134554         2.207780
 H        -4.089012        -1.292788         1.676601
 H        -1.623404        -0.046677         2.082780
 H        -2.876105         0.923359        -0.293498
 H        -2.305363        -1.520717        -1.251548
 H        -0.935787        -0.621033        -1.902077
 H         0.812295        -2.378416         0.943190
 H        -0.516997         1.913147         0.917068
 H        -0.512501         1.868310        -1.044429
