19
Iteration:  4968
 C        -2.917180        -1.490011         1.462462
 C        -1.862095        -0.475831         1.169353
 C        -1.980633         0.349972        -0.142320
 C        -1.548151        -0.924040        -1.025982
 C        -0.681083        -1.145240         0.293843
 O        -0.090464        -2.344820         0.668945
 C         0.271099         0.026271         0.047677
 O         1.485459        -0.113210         0.101397
 C        -0.677520         1.203369        -0.045581
 H        -3.349439        -1.977795         0.623693
 H        -2.352845        -2.263711         2.015651
 H        -3.868160        -1.203768         2.030463
 H        -1.604206         0.084582         2.120689
 H        -2.855702         1.021130        -0.366782
 H        -2.470854        -1.563072        -1.441224
 H        -1.075632        -0.706314        -1.963859
 H         0.899668        -2.271527         0.565003
 H        -0.553773         1.842227         0.884448
 H        -0.477022         1.945312        -0.765392
