19
Iteration:  3508
 C        -2.837945        -1.368747         1.567856
 C        -1.750251        -0.514980         1.132492
 C        -2.051367         0.346203        -0.154773
 C        -1.666197        -0.893903        -1.050178
 C        -0.708125        -1.199354         0.157342
 O        -0.069371        -2.434969         0.453051
 C         0.287533        -0.050432         0.076746
 O         1.441365        -0.002874         0.505117
 C        -0.668829         1.188279        -0.228937
 H        -3.076239        -2.209098         0.928934
 H        -2.548267        -1.836894         2.578285
 H        -3.775737        -0.770076         1.610989
 H        -1.495763         0.174956         1.991916
 H        -2.974412         0.911253        -0.172822
 H        -2.389653        -1.782932        -1.022468
 H        -1.111508        -0.835183        -2.011913
 H         0.861447        -2.156467         0.739110
 H        -0.393378         1.997786         0.419843
 H        -0.443904         1.539236        -1.255499
