19
Iteration:  3871charge 0 multiplicity 1
 C        -3.148977        -1.400521         1.385819
 C        -1.943112        -0.523389         1.145993
 C        -2.009414         0.341551        -0.097856
 C        -1.472696        -0.878664        -0.985576
 C        -0.613352        -1.123864         0.299765
 O         0.075057        -2.328743         0.625340
 C         0.280969        -0.012849         0.122024
 O         1.519520        -0.171166         0.018260
 C        -0.708975         1.179169         0.028303
 H        -3.293448        -2.266669         0.584586
 H        -3.067651        -1.980927         2.366986
 H        -4.034451        -0.798224         1.708075
 H        -1.573120         0.164951         2.025950
 H        -2.947397         0.844493        -0.104987
 H        -2.204484        -1.628669        -0.998764
 H        -0.879188        -0.842869        -1.907611
 H         0.976283        -1.955752         0.531088
 H        -0.594151         1.863228         0.846647
 H        -0.636954         1.732043        -0.994025
