19
Iteration:  2745charge 0 multiplicity 1
 C        -3.226849        -1.494697         1.431943
 C        -1.907211        -0.571982         1.183038
 C        -1.910502         0.309965        -0.113766
 C        -1.491067        -0.840738        -0.943568
 C        -0.568831        -1.184179         0.409982
 O        -0.037560        -2.421249         0.675569
 C         0.315074         0.023104         0.215859
 O         1.508866         0.053167        -0.020613
 C        -0.668823         1.188699        -0.213233
 H        -4.094452        -1.031434         0.932614
 H        -3.177258        -2.569335         1.126579
 H        -3.379354        -1.303206         2.484881
 H        -1.662197        -0.107193         2.090308
 H        -2.870997         0.915176        -0.340783
 H        -2.206248        -1.586642        -1.385866
 H        -0.671838        -0.706430        -1.688069
 H         0.867366        -2.317157         0.557073
 H        -0.578493         2.001540         0.480292
 H        -0.399324         1.546187        -1.234728
