19
Iteration:  2713charge 0 multiplicity 1
 C        -3.017719        -1.445322         1.407156
 C        -1.822983        -0.514023         1.099840
 C        -1.967237         0.349031        -0.182067
 C        -1.541301        -0.946818        -0.933917
 C        -0.604997        -1.191662         0.277362
 O        -0.134340        -2.382103         0.667509
 C         0.329323         0.006509         0.148058
 O         1.535047         0.033956         0.076395
 C        -0.728558         1.177883        -0.069420
 H        -3.914153        -1.250347         0.774371
 H        -2.891126        -2.499992         1.591150
 H        -3.329316        -1.118230         2.391285
 H        -1.486731        -0.023409         1.963201
 H        -3.008611         0.761778        -0.430976
 H        -2.336475        -1.706710        -1.074953
 H        -0.809164        -0.824341        -1.705709
 H         0.898937        -2.361949         0.820696
 H        -0.859447         1.656998         0.882020
 H        -0.564107         1.826628        -0.940496
