19
Iteration:   448
 C        -3.059166        -1.303725         1.634323
 C        -1.830441        -0.559114         1.135707
 C        -1.944710         0.327410        -0.131578
 C        -1.480184        -0.808608        -1.034864
 C        -0.655654        -1.238252         0.315278
 O        -0.004279        -2.442737         0.300285
 C         0.249393         0.022781         0.173704
 O         1.466993        -0.063514         0.213683
 C        -0.721548         1.138814        -0.032221
 H        -3.720685        -1.643770         0.797521
 H        -2.683788        -2.111800         2.341799
 H        -3.727617        -0.696542         2.210862
 H        -1.399632        -0.163121         2.040631
 H        -2.931113         0.831278        -0.332378
 H        -2.355060        -1.554553        -1.229834
 H        -0.935931        -0.633986        -1.949054
 H         0.929197        -2.339520         0.691861
 H        -0.874546         1.937291         0.640108
 H        -0.526687         1.632351        -1.024813
