19
Iteration:  2278charge 0 multiplicity 1
 C        -2.972799        -1.448862         1.752400
 C        -1.868940        -0.513905         1.150130
 C        -2.002268         0.378490        -0.100028
 C        -1.681808        -0.856698        -1.002426
 C        -0.673341        -1.205170         0.147972
 O        -0.001874        -2.354064         0.225253
 C         0.284164        -0.013694         0.172521
 O         1.504321        -0.200944         0.254690
 C        -0.630668         1.262329        -0.052611
 H        -2.985637        -2.352402         0.985638
 H        -2.587975        -1.777472         2.599580
 H        -3.857620        -0.842399         1.710885
 H        -1.327215         0.124001         1.933006
 H        -2.900867         0.989660        -0.319373
 H        -2.694839        -1.327846        -0.911773
 H        -1.306232        -0.741329        -2.007455
 H         0.971415        -2.066808         0.617482
 H        -0.563678         1.853584         0.874182
 H        -0.372395         1.896315        -0.846030
