19
Iteration:  4924charge 0 multiplicity 1
 C        -2.977770        -1.510726         1.536447
 C        -1.830060        -0.462262         1.148755
 C        -1.951983         0.390000        -0.087410
 C        -1.561002        -0.838294        -1.030408
 C        -0.707680        -1.189917         0.289121
 O        -0.079280        -2.409570         0.553571
 C         0.305576         0.020645         0.102855
 O         1.515139        -0.077109         0.190843
 C        -0.699826         1.216806        -0.161241
 H        -3.260706        -2.190272         0.801855
 H        -2.667484        -2.115389         2.398655
 H        -4.010439        -1.139935         1.768285
 H        -1.553751        -0.013623         2.136783
 H        -2.966887         0.833619        -0.165239
 H        -2.179043        -1.757360        -1.282154
 H        -1.019878        -0.732535        -1.897629
 H         0.933743        -2.239291         0.547176
 H        -0.732562         2.134018         0.461984
 H        -0.575718         1.608300        -1.116208
