19
Iteration:  4645
 C        -2.900820        -1.516305         1.486313
 C        -1.881441        -0.443751         1.196587
 C        -1.974484         0.394908        -0.132214
 C        -1.606229        -0.863872        -0.965146
 C        -0.635602        -1.205733         0.187117
 O        -0.137955        -2.405453         0.599876
 C         0.281395         0.003995         0.068270
 O         1.487880        -0.000857         0.216864
 C        -0.623515         1.160611        -0.109287
 H        -3.478609        -1.963758         0.550591
 H        -2.577312        -2.212549         2.231496
 H        -3.842593        -1.080184         1.807400
 H        -1.505331        -0.012647         2.199271
 H        -2.875363         0.845296        -0.489258
 H        -2.339435        -1.617666        -1.067860
 H        -1.215198        -0.918343        -2.027064
 H         0.881633        -2.242674         0.619350
 H        -0.331999         1.836907         0.612193
 H        -0.362160         1.626132        -1.138512
