19
Iteration:  4587charge 0 multiplicity 1
 C        -2.873091        -1.413196         1.701012
 C        -1.791491        -0.490119         1.078572
 C        -1.975438         0.344399        -0.178996
 C        -1.626696        -0.862518        -1.114735
 C        -0.706520        -1.203888         0.251940
 O        -0.121629        -2.451149         0.375271
 C         0.263857         0.028223         0.146195
 O         1.443688         0.011940         0.464990
 C        -0.667257         1.117453        -0.257617
 H        -3.463948        -1.902735         1.005894
 H        -2.420987        -2.240112         2.311345
 H        -3.359470        -0.760098         2.459542
 H        -1.327640         0.161778         1.955785
 H        -2.879305         0.959293        -0.084068
 H        -2.406857        -1.719247        -1.275148
 H        -0.776115        -0.761716        -1.909829
 H         0.775900        -2.230371         0.477094
 H        -0.501126         1.988567         0.445217
 H        -0.416219         1.400574        -1.207197
