19
Iteration:  4038charge 0 multiplicity 1
 C        -2.942949        -1.313071         1.634451
 C        -1.732664        -0.476387         1.140113
 C        -2.044502         0.295590        -0.161273
 C        -1.694729        -0.905952        -1.004843
 C        -0.614596        -1.233866         0.156715
 O         0.008226        -2.479673         0.344078
 C         0.290224        -0.029650         0.101401
 O         1.422070         0.021332         0.565892
 C        -0.675082         1.180787        -0.272090
 H        -3.452614        -1.731993         0.747590
 H        -2.630829        -2.189302         2.133089
 H        -3.618020        -0.606001         2.147286
 H        -1.285986         0.021743         2.033379
 H        -3.001118         0.795452        -0.362161
 H        -2.596753        -1.586051        -1.050216
 H        -1.316168        -0.728171        -1.981678
 H         0.982497        -2.309114         0.435112
 H        -0.641483         1.922709         0.579194
 H        -0.484612         1.644921        -1.229387
