19
Iteration:  2372charge 0 multiplicity 1
 C        -2.779662        -1.533635         1.601906
 C        -1.821662        -0.442124         1.186226
 C        -2.019817         0.457564        -0.087510
 C        -1.688993        -0.858681        -1.010038
 C        -0.685746        -1.173716         0.194465
 O        -0.147489        -2.483797         0.299091
 C         0.284048         0.062080         0.159484
 O         1.485149        -0.089669         0.350245
 C        -0.601932         1.181394        -0.121253
 H        -3.624280        -1.481469         0.925743
 H        -2.522255        -2.693400         1.576884
 H        -3.283239        -1.293997         2.595869
 H        -1.314771         0.021661         2.013388
 H        -2.885375         1.037301        -0.438966
 H        -2.665398        -1.315216        -0.975319
 H        -1.248572        -0.582874        -1.973390
 H         0.761310        -2.367750         0.654210
 H        -0.495971         2.060052         0.504080
 H        -0.494025         1.586874        -1.211232
