19
Iteration:  2063
 C        -2.911645        -1.423609         1.802077
 C        -1.798083        -0.570896         1.069343
 C        -1.948558         0.364219        -0.125480
 C        -1.602115        -0.752201        -1.107916
 C        -0.635735        -1.241021         0.102053
 O        -0.200282        -2.571329         0.299814
 C         0.290761         0.031085         0.139515
 O         1.482435         0.083417         0.342642
 C        -0.657202         1.199895        -0.047193
 H        -3.577079        -2.027946         1.193907
 H        -2.243257        -2.193376         2.348524
 H        -3.488308        -0.853620         2.488500
 H        -1.368732        -0.103215         1.949724
 H        -2.889111         0.888650        -0.139861
 H        -2.499494        -1.369460        -1.280356
 H        -1.081868        -0.594005        -2.043333
 H         0.624138        -2.621732         0.790108
 H        -0.540319         2.068719         0.686239
 H        -0.437440         1.436887        -1.130016
