19
Iteration:  2249
 C        -2.940563        -1.378492         1.516412
 C        -1.694085        -0.599356         1.196295
 C        -1.953345         0.384912         0.040914
 C        -1.686656        -0.797192        -0.979162
 C        -0.656619        -1.215835         0.188852
 O        -0.073064        -2.372441         0.418384
 C         0.234229        -0.055610         0.097623
 O         1.444484        -0.081605         0.183201
 C        -0.668748         1.145004        -0.079515
 H        -3.213709        -2.024488         0.684431
 H        -2.643099        -2.186282         2.396983
 H        -3.785098        -0.663098         1.613002
 H        -1.217237        -0.083081         2.026687
 H        -2.899868         0.905079         0.060031
 H        -2.625683        -1.349888        -1.094194
 H        -1.232533        -0.532721        -1.964053
 H         0.938505        -2.176349         0.141364
 H        -0.491875         1.820504         0.813401
 H        -0.517978         1.861712        -0.941173
