19
Iteration:  3857charge 0 multiplicity 1
 C        -3.081691        -1.424564         1.389892
 C        -1.882282        -0.538913         1.144947
 C        -1.949105         0.329760        -0.115861
 C        -1.603331        -0.915400        -0.941632
 C        -0.677803        -1.192169         0.340751
 O         0.002956        -2.324972         0.638469
 C         0.297431         0.005058         0.074480
 O         1.526426        -0.044428         0.051724
 C        -0.629088         1.153961        -0.021563
 H        -3.387453        -1.979928         0.511792
 H        -2.809587        -2.213237         2.197276
 H        -3.984926        -0.812238         1.476960
 H        -1.705067        -0.037231         2.140723
 H        -2.809876         0.871824        -0.591968
 H        -2.409426        -1.603401        -1.094083
 H        -1.209569        -0.669813        -1.927891
 H         0.972390        -2.188654         0.798465
 H        -0.592297         1.710237         0.968892
 H        -0.352582         1.933080        -0.834625
