19
Iteration:  1804charge 0 multiplicity 1
 C        -2.848379        -1.262638         1.706586
 C        -1.710874        -0.584103         1.041806
 C        -1.984173         0.364581        -0.188456
 C        -1.491573        -0.825967        -1.040056
 C        -0.679506        -1.250632         0.153475
 O        -0.115070        -2.525557         0.289136
 C         0.215712         0.002551         0.039856
 O         1.378811        -0.031239         0.425305
 C        -0.740934         1.193771         0.020525
 H        -3.558546        -1.824902         1.175842
 H        -2.349104        -2.033088         2.437795
 H        -3.479325        -0.610002         2.347278
 H        -1.122564        -0.000769         1.817605
 H        -2.997654         0.653185        -0.369128
 H        -2.435640        -1.431221        -1.140090
 H        -1.088536        -0.647078        -2.083232
 H         0.801304        -2.474137         0.598554
 H        -0.744371         1.773870         0.947036
 H        -0.507037         1.959878        -0.835187
