19
Iteration:   955charge 0 multiplicity 1
 C        -2.994839        -1.342716         1.777201
 C        -1.842122        -0.461893         1.114190
 C        -1.972459         0.355587        -0.119857
 C        -1.644035        -0.876974        -1.054853
 C        -0.606493        -1.232468         0.062568
 O         0.069120        -2.424282         0.249801
 C         0.244595        -0.060121         0.154946
 O         1.448597        -0.111064         0.377469
 C        -0.726137         1.166787        -0.082372
 H        -3.572627        -1.959228         0.998783
 H        -2.634294        -2.033247         2.569492
 H        -3.642952        -0.607487         2.320617
 H        -1.456601         0.110641         1.984652
 H        -2.818566         1.053621        -0.306037
 H        -2.436313        -1.706310        -1.148484
 H        -1.045862        -0.608952        -1.930702
 H         0.916722        -1.924041         0.627301
 H        -0.827993         1.936246         0.683435
 H        -0.398637         1.828849        -0.926039
