19
Iteration:  1896charge 0 multiplicity 1
 C        -2.988185        -1.494437         1.581876
 C        -1.799537        -0.598383         1.048053
 C        -2.031241         0.394417        -0.094473
 C        -1.555146        -0.712938        -1.055726
 C        -0.640660        -1.165101         0.199973
 O        -0.062512        -2.378898         0.592550
 C         0.281795        -0.010338         0.135435
 O         1.497446        -0.165400         0.113132
 C        -0.694088         1.205617        -0.037499
 H        -3.720592        -1.846528         0.734411
 H        -2.670238        -2.325106         2.111749
 H        -3.675796        -0.920429         2.232804
 H        -1.283609        -0.088365         1.972173
 H        -3.005612         0.931375         0.024131
 H        -2.215060        -1.536745        -1.268326
 H        -1.227497        -0.337751        -2.030727
 H         0.838165        -2.089453         0.787349
 H        -0.606461         1.890202         0.905313
 H        -0.399918         1.713296        -0.956506
