19
Iteration:   476
 C        -3.081480        -1.437392         1.601375
 C        -1.903104        -0.459617         1.166515
 C        -1.956595         0.371209        -0.155974
 C        -1.538059        -0.935697        -0.978873
 C        -0.613074        -1.176018         0.278164
 O         0.016252        -2.387669         0.352875
 C         0.238507         0.043638         0.152084
 O         1.444731        -0.142531         0.106161
 C        -0.622579         1.206856         0.073247
 H        -3.393816        -1.993307         0.696318
 H        -2.687282        -2.089673         2.389571
 H        -3.926034        -0.722705         1.870589
 H        -1.559424         0.019324         2.129506
 H        -2.787425         0.949857        -0.475718
 H        -2.275436        -1.680135        -1.085555
 H        -1.018014        -0.785082        -2.011674
 H         0.961191        -2.241798         0.637859
 H        -0.803618         2.051629         0.822663
 H        -0.302506         1.728430        -0.822788
