19
Iteration:  4502
 C        -2.975319        -1.402682         1.680564
 C        -1.872652        -0.534606         1.073858
 C        -2.043126         0.355536        -0.174705
 C        -1.592912        -0.871967        -0.995812
 C        -0.658007        -1.156717         0.203173
 O        -0.077387        -2.473980         0.448669
 C         0.320258         0.006252         0.157669
 O         1.548068        -0.033218         0.341094
 C        -0.687907         1.230694        -0.189026
 H        -3.351052        -2.384801         1.050637
 H        -2.591620        -1.991982         2.560777
 H        -3.814035        -0.760807         2.012296
 H        -1.370651        -0.015413         1.856884
 H        -2.978190         0.827016        -0.378414
 H        -2.257098        -1.700346        -1.224370
 H        -1.142822        -0.563393        -1.889774
 H         0.823482        -2.328514         0.172531
 H        -0.480871         2.029712         0.542791
 H        -0.386832         1.598683        -1.264480
