19
Iteration:  3042charge 0 multiplicity 1
 C        -3.102690        -1.459447         1.391930
 C        -1.830669        -0.584401         1.098640
 C        -1.941605         0.354595        -0.156391
 C        -1.576799        -0.915962        -1.035044
 C        -0.622850        -1.186464         0.300789
 O         0.023195        -2.281095         0.824229
 C         0.270748         0.001031         0.124574
 O         1.458570        -0.076717         0.022859
 C        -0.671427         1.193062        -0.063830
 H        -4.056966        -1.103467         0.885111
 H        -3.008457        -2.438419         1.134584
 H        -3.134981        -1.366402         2.432096
 H        -1.543733        -0.022551         2.039208
 H        -2.940645         0.768973        -0.050022
 H        -2.365792        -1.702724        -1.157377
 H        -1.059526        -0.610633        -1.960168
 H         0.968396        -2.142393         0.402906
 H        -0.472261         1.753057         0.814663
 H        -0.521286         1.873806        -0.879403
