19
Iteration:  3784charge 0 multiplicity 1
 C        -2.803468        -1.472606         1.673240
 C        -1.816326        -0.455059         1.059478
 C        -1.969779         0.343760        -0.280947
 C        -1.581857        -0.904879        -1.022495
 C        -0.688856        -1.195715         0.125588
 O        -0.203252        -2.457032         0.499650
 C         0.258445         0.054935         0.159532
 O         1.433852         0.006946         0.448262
 C        -0.618076         1.188776        -0.186987
 H        -3.577056        -2.168908         1.143045
 H        -2.110499        -2.268181         2.116373
 H        -3.342187        -0.932664         2.484239
 H        -1.527993         0.198456         1.952734
 H        -2.840037         0.931006        -0.494018
 H        -2.398335        -1.579114        -1.101191
 H        -1.070914        -0.831035        -2.089139
 H         0.803647        -2.368945         0.403091
 H        -0.682741         2.007947         0.475751
 H        -0.445356         1.616959        -1.241777
