19
Iteration:  1788
 C        -2.900006        -1.308289         1.787810
 C        -1.802531        -0.472006         1.142118
 C        -1.942727         0.346622        -0.187562
 C        -1.646725        -0.957718        -1.107811
 C        -0.675494        -1.263207         0.065251
 O        -0.052319        -2.502074         0.204552
 C         0.232779        -0.019215         0.235168
 O         1.460853        -0.033512         0.435507
 C        -0.701791         1.264703        -0.063587
 H        -3.388397        -2.021485         0.980641
 H        -2.516252        -1.957566         2.535075
 H        -3.583862        -0.538154         2.164789
 H        -1.326647         0.049664         1.933191
 H        -2.852066         0.984561        -0.320776
 H        -2.424000        -1.686604        -1.219464
 H        -1.064909        -0.800705        -1.988429
 H         0.847227        -2.245820         0.325911
 H        -0.690835         1.897081         0.862633
 H        -0.435392         1.904246        -0.836680
