19
Iteration:  3248charge 0 multiplicity 1
 C        -3.014385        -1.345422         1.524223
 C        -1.750560        -0.609054         1.174558
 C        -2.001161         0.303273        -0.071812
 C        -1.582307        -0.947919        -1.024556
 C        -0.680311        -1.224437         0.146369
 O        -0.082576        -2.436352         0.581129
 C         0.289674         0.024583         0.062940
 O         1.491616         0.078435         0.247360
 C        -0.642671         1.209150        -0.113322
 H        -3.632240        -2.023532         0.726414
 H        -2.750146        -2.063580         2.273296
 H        -3.808349        -0.659332         1.790553
 H        -1.387175        -0.165466         2.063340
 H        -2.847774         0.911050        -0.317235
 H        -2.380628        -1.703373        -1.127466
 H        -1.261612        -0.547150        -1.943021
 H         0.873420        -2.283726         0.656328
 H        -0.275579         1.946976         0.601048
 H        -0.625760         1.506584        -1.216052
