19
Iteration:  4322charge 0 multiplicity 1
 C        -2.846534        -1.444034         1.600908
 C        -1.764821        -0.468547         1.140310
 C        -2.010658         0.333035        -0.165778
 C        -1.577982        -0.911719        -0.979449
 C        -0.634681        -1.136230         0.231724
 O        -0.191514        -2.441302         0.348344
 C         0.265554        -0.012925         0.184567
 O         1.419619         0.040252         0.477345
 C        -0.618032         1.120449        -0.280374
 H        -3.135487        -2.200566         0.873407
 H        -2.462545        -1.948436         2.595731
 H        -3.836219        -0.831028         1.742042
 H        -1.372606         0.141907         2.013382
 H        -2.996794         0.781185        -0.496116
 H        -2.410899        -1.586685        -1.054568
 H        -1.133525        -0.752360        -1.977228
 H         0.800003        -2.300550         0.334769
 H        -0.567530         2.022512         0.399678
 H        -0.426681         1.444755        -1.278725
