19
Iteration:  4236
 C        -2.963306        -1.427531         1.627520
 C        -1.773181        -0.509519         1.076884
 C        -2.051188         0.375018        -0.220746
 C        -1.522215        -0.897773        -1.006285
 C        -0.627665        -1.135842         0.235612
 O        -0.071762        -2.450310         0.376805
 C         0.270938         0.047461         0.202248
 O         1.455950        -0.048784         0.434988
 C        -0.714819         1.148547        -0.255801
 H        -3.655324        -1.786994         0.958059
 H        -2.485667        -2.135823         2.382224
 H        -3.516123        -0.885789         2.430102
 H        -1.431565         0.024982         1.970034
 H        -2.970118         1.036894        -0.470468
 H        -2.212171        -1.689669        -0.953227
 H        -1.127232        -0.835699        -1.948575
 H         0.858688        -2.453047         0.483155
 H        -0.808443         2.034902         0.547658
 H        -0.356810         1.583369        -1.162398
