19
Iteration:  3466
 C        -2.715276        -1.539915         1.643412
 C        -1.798892        -0.388010         1.077558
 C        -2.056267         0.450389        -0.192862
 C        -1.684165        -0.936797        -0.941558
 C        -0.723561        -1.146620         0.198613
 O        -0.152832        -2.455136         0.357982
 C         0.299579        -0.022461         0.117693
 O         1.401456         0.004859         0.609206
 C        -0.566019         1.168616        -0.363447
 H        -2.618703        -2.463746         1.009596
 H        -2.660798        -1.630281         2.767719
 H        -3.775379        -1.271575         1.518668
 H        -1.310277         0.101079         2.000452
 H        -2.969819         1.010769        -0.405463
 H        -2.591383        -1.624845        -1.107396
 H        -1.240643        -0.744227        -1.991156
 H         0.779915        -2.410731         0.655866
 H        -0.458929         2.072691         0.237297
 H        -0.337432         1.259755        -1.485445
