19
Iteration:  2637charge 0 multiplicity 1
 C        -2.851281        -1.432625         1.636915
 C        -1.775176        -0.504971         1.121529
 C        -1.979903         0.386303        -0.142604
 C        -1.626071        -0.898004        -0.990374
 C        -0.707136        -1.207387         0.117004
 O        -0.076070        -2.434342         0.419198
 C         0.281202         0.058429         0.120182
 O         1.422730        -0.026888         0.511017
 C        -0.688904         1.151038        -0.291599
 H        -2.941802        -2.426189         1.031917
 H        -2.834755        -1.716932         2.682005
 H        -3.859465        -1.050808         1.461723
 H        -1.269333         0.032877         2.054268
 H        -2.947197         1.001349        -0.269386
 H        -2.579758        -1.459465        -1.157972
 H        -1.168695        -0.847753        -1.970247
 H         0.922735        -2.165001         0.553388
 H        -0.442560         2.021121         0.351424
 H        -0.395386         1.469835        -1.327200
