19
Iteration:  3828charge 0 multiplicity 1
 C        -2.905799        -1.457122         1.458906
 C        -1.843949        -0.550081         1.084820
 C        -1.940839         0.371879        -0.092444
 C        -1.535699        -0.899245        -1.003238
 C        -0.652069        -1.184533         0.285582
 O        -0.207824        -2.450590         0.655923
 C         0.300276         0.033114         0.126738
 O         1.503742         0.045422         0.176301
 C        -0.691398         1.224057        -0.129955
 H        -3.454625        -2.013122         0.585077
 H        -2.587350        -2.365886         2.016426
 H        -3.720939        -0.958095         2.034391
 H        -1.393285        -0.029376         2.014125
 H        -2.836445         0.785735        -0.484132
 H        -2.369420        -1.561017        -0.995799
 H        -1.140191        -0.637733        -2.062853
 H         0.780975        -2.641830         0.660540
 H        -0.494619         2.057272         0.496604
 H        -0.421832         1.508541        -1.197886
