19
Iteration:  2557
 C        -2.922883        -1.451829         1.573997
 C        -1.813305        -0.544558         1.181470
 C        -1.961335         0.350700        -0.128640
 C        -1.583591        -0.835298        -1.056649
 C        -0.762111        -1.222938         0.265548
 O        -0.087178        -2.401494         0.447393
 C         0.274663         0.012847         0.148441
 O         1.478003        -0.060445         0.312583
 C        -0.645020         1.218696        -0.179812
 H        -2.463969        -2.242974         2.086906
 H        -3.715368        -1.015188         2.389379
 H        -3.545338        -1.962884         0.754033
 H        -1.422943        -0.018185         2.090621
 H        -2.864523         0.898681        -0.388480
 H        -2.388447        -1.563758        -1.148411
 H        -1.056708        -0.355219        -1.955283
 H         0.930524        -2.155673         0.412303
 H        -0.381693         2.106278         0.358514
 H        -0.518610         1.479060        -1.267408
