19
Iteration:  3748
 C        -2.854957        -1.346715         1.617099
 C        -1.739103        -0.455609         1.161162
 C        -1.993342         0.283852        -0.110781
 C        -1.690301        -0.935805        -1.011435
 C        -0.645033        -1.197337         0.021452
 O        -0.049390        -2.388697         0.373090
 C         0.291775         0.007141         0.038709
 O         1.365156        -0.063030         0.612857
 C        -0.656836         1.139274        -0.250614
 H        -3.289464        -1.930647         0.781891
 H        -2.543620        -1.985930         2.560735
 H        -3.717763        -0.777309         2.098437
 H        -1.237835         0.278324         1.936939
 H        -2.912363         0.876584        -0.363342
 H        -2.543006        -1.660634        -1.038579
 H        -1.227441        -0.857815        -1.975631
 H         0.814687        -2.066495         0.792971
 H        -0.569038         2.086663         0.348617
 H        -0.508670         1.436387        -1.360050
