19
Iteration:  4731charge 0 multiplicity 1
 C        -3.080547        -1.396224         1.547606
 C        -1.854438        -0.530705         1.126049
 C        -1.938014         0.386923        -0.193050
 C        -1.569458        -0.955300        -0.985725
 C        -0.643811        -1.161637         0.238993
 O        -0.036797        -2.402653         0.540835
 C         0.284813        -0.009898         0.167479
 O         1.501401        -0.005412         0.118959
 C        -0.685480         1.185169        -0.042042
 H        -3.316004        -2.174060         0.729958
 H        -2.759359        -2.138113         2.276113
 H        -3.934907        -0.840271         1.958516
 H        -1.378394        -0.094876         2.063418
 H        -2.856756         0.874842        -0.370288
 H        -2.275126        -1.788061        -0.842408
 H        -1.104540        -0.716193        -2.094198
 H         0.972113        -2.337474         0.711459
 H        -0.718118         1.894056         0.813653
 H        -0.353005         1.745833        -0.978675
