19
Iteration:  1397charge 0 multiplicity 1
 C        -2.990264        -1.475061         1.620624
 C        -1.874156        -0.592170         1.080440
 C        -1.946112         0.431278        -0.089681
 C        -1.516145        -0.824236        -1.065097
 C        -0.702334        -1.212211         0.246729
 O        -0.224399        -2.527014         0.494795
 C         0.339442         0.017306         0.155593
 O         1.542618         0.073456         0.123268
 C        -0.631026         1.217600        -0.053828
 H        -3.524188        -2.033337         0.788528
 H        -2.501042        -2.167425         2.276864
 H        -3.473319        -0.872755         2.316624
 H        -1.543961        -0.119779         2.032940
 H        -2.927719         0.832726        -0.383343
 H        -2.329861        -1.555485        -1.256419
 H        -0.865658        -0.539964        -1.922616
 H         0.790566        -2.491007         0.674322
 H        -0.444367         1.734745         0.919236
 H        -0.563054         1.833697        -0.938832
