19
Iteration:  1418charge 0 multiplicity 1
 C        -2.982819        -1.347623         1.787420
 C        -1.782580        -0.548161         1.109226
 C        -1.977964         0.304383        -0.232433
 C        -1.392525        -0.765687        -1.121588
 C        -0.654455        -1.210023         0.177527
 O        -0.171098        -2.473341         0.373573
 C         0.255768        -0.022394         0.249001
 O         1.445970         0.006883         0.181999
 C        -0.729353         1.126934         0.001132
 H        -3.586088        -1.901817         0.890214
 H        -2.747787        -2.130963         2.495000
 H        -3.475328        -0.678166         2.424170
 H        -1.389885        -0.020359         2.036474
 H        -2.985695         0.778883        -0.250105
 H        -2.147512        -1.518992        -1.448634
 H        -0.785553        -0.349297        -1.979034
 H         0.753279        -2.390231         0.503936
 H        -0.724897         1.873928         0.856739
 H        -0.280323         1.462007        -0.929241
