19
Iteration:   535charge 0 multiplicity 1
 C        -2.833407        -1.605240         1.388680
 C        -1.788091        -0.552366         1.175000
 C        -2.012740         0.462594         0.001258
 C        -1.601950        -0.762097        -0.900536
 C        -0.702225        -1.169817         0.295299
 O        -0.255054        -2.470411         0.614751
 C         0.306207        -0.052478         0.102566
 O         1.527505        -0.017302         0.117438
 C        -0.618441         1.281447        -0.195203
 H        -2.879080        -2.363265         0.560193
 H        -2.579256        -2.117041         2.348945
 H        -3.738206        -1.047548         1.570254
 H        -1.369689        -0.209498         2.135640
 H        -2.913402         1.107474        -0.243427
 H        -2.530130        -1.406935        -1.261399
 H        -1.088962        -0.434398        -1.816712
 H         0.668768        -2.487327         0.391052
 H        -0.560064         1.992491         0.579859
 H        -0.499592         1.658484        -1.238413
