19
Iteration:  4141charge 0 multiplicity 1
 C        -3.017300        -1.585353         1.436587
 C        -1.906020        -0.548866         1.083682
 C        -1.977758         0.435439        -0.092018
 C        -1.429823        -0.775608        -0.976953
 C        -0.691507        -1.161856         0.304159
 O        -0.094384        -2.367055         0.708289
 C         0.284738        -0.016098         0.138913
 O         1.486027        -0.145585        -0.006594
 C        -0.669092         1.285831        -0.038676
 H        -3.170964        -2.280874         0.620427
 H        -2.504071        -2.149696         2.237907
 H        -3.980999        -1.342431         1.844199
 H        -1.863721        -0.037488         2.031920
 H        -2.962496         0.885218        -0.388627
 H        -2.240298        -1.477621        -1.170159
 H        -0.878341        -0.515026        -1.975257
 H         0.894956        -2.049360         0.651174
 H        -0.385730         1.932126         0.744689
 H        -0.429675         1.748544        -0.950746
