19
Iteration:  2609charge 0 multiplicity 1
 C        -2.888162        -1.327736         1.584863
 C        -1.684207        -0.433879         1.119859
 C        -2.011346         0.380843        -0.195220
 C        -1.692705        -1.066988        -0.927855
 C        -0.646527        -1.242788         0.080108
 O        -0.104031        -2.474660         0.296875
 C         0.307374         0.027542         0.162230
 O         1.497025         0.087017         0.500554
 C        -0.745604         1.130835        -0.186229
 H        -3.019305        -2.403599         1.442614
 H        -3.142872        -1.278701         2.671681
 H        -3.813339        -0.974368         1.073835
 H        -1.280764         0.041682         1.965823
 H        -2.896583         0.943227        -0.152512
 H        -2.508004        -1.773093        -1.019440
 H        -1.255701        -1.053604        -1.990213
 H         0.726690        -2.450055         0.869214
 H        -0.647703         1.814147         0.696368
 H        -0.248371         1.837636        -0.834522
