19
Iteration:  2089charge 0 multiplicity 1
 C        -2.920469        -1.390275         1.604011
 C        -1.658175        -0.543814         1.160291
 C        -1.980703         0.300200        -0.074381
 C        -1.727237        -0.869395        -0.919069
 C        -0.659138        -1.187257         0.172264
 O        -0.152169        -2.461856         0.228391
 C         0.302712         0.024276         0.088651
 O         1.498795         0.063193         0.342595
 C        -0.622701         1.164826        -0.103424
 H        -3.583734        -1.437462         0.737450
 H        -2.798029        -2.481678         1.854049
 H        -3.496785        -0.824079         2.395402
 H        -1.260317         0.009747         2.122240
 H        -2.933613         0.848662        -0.026239
 H        -2.460228        -1.644978        -1.123940
 H        -1.052076        -0.743394        -1.794929
 H         0.286675        -2.672640         1.021447
 H        -0.544898         1.744227         0.761685
 H        -0.644502         1.713578        -1.092536
