19
Iteration:  1100
 C        -3.045571        -1.448070         1.540468
 C        -1.799986        -0.706476         1.239642
 C        -1.955423         0.422837        -0.074508
 C        -1.603300        -0.801359        -1.025753
 C        -0.762356        -1.235775         0.225899
 O        -0.019182        -2.396016         0.443813
 C         0.273315         0.024230         0.147612
 O         1.494828        -0.016634         0.137026
 C        -0.607308         1.146881        -0.066514
 H        -3.620389        -1.588935         0.582398
 H        -2.640319        -2.075287         2.271798
 H        -3.782034        -0.810101         1.971556
 H        -1.335817        -0.228148         2.124375
 H        -2.873380         0.948436        -0.246692
 H        -2.417829        -1.488924        -1.247138
 H        -0.929137        -0.486612        -1.935765
 H         0.924180        -1.995280         0.691403
 H        -0.462013         1.885081         0.744862
 H        -0.599467         1.721239        -0.955698
