19
Iteration:  3737
 C        -2.918903        -1.330893         1.644601
 C        -1.727465        -0.501920         1.138661
 C        -1.953384         0.369485        -0.123933
 C        -1.676317        -0.941778        -0.970185
 C        -0.590755        -1.186005         0.152667
 O        -0.033185        -2.391701         0.320209
 C         0.245511         0.004489         0.111081
 O         1.365568        -0.070851         0.600611
 C        -0.700385         1.137565        -0.387466
 H        -3.247130        -2.077513         0.880223
 H        -2.522429        -2.060198         2.501449
 H        -3.750577        -0.584295         1.828132
 H        -1.297368        -0.028912         2.159467
 H        -2.962299         0.875020        -0.097340
 H        -2.478690        -1.719676        -1.111618
 H        -1.308685        -0.689816        -1.966611
 H         0.985283        -2.284827         0.475915
 H        -0.627593         1.969211         0.382773
 H        -0.384801         1.502937        -1.426245
