19
Iteration:   187
 C        -2.902926        -1.589073         1.626859
 C        -1.833179        -0.518693         1.144485
 C        -1.956887         0.397688        -0.133179
 C        -1.605469        -0.673901        -1.108685
 C        -0.669830        -1.171429         0.272755
 O        -0.233044        -2.431176         0.488482
 C         0.354925        -0.017955         0.130422
 O         1.559621        -0.004015         0.218001
 C        -0.689810         1.136110        -0.067374
 H        -3.332270        -2.147317         0.771878
 H        -2.393309        -2.265373         2.348119
 H        -3.674490        -1.080808         2.134139
 H        -1.421701         0.092835         1.999664
 H        -2.848125         0.997696        -0.169148
 H        -2.369145        -1.489707        -1.180892
 H        -1.030555        -0.607161        -2.025725
 H         0.542046        -2.630381         0.031311
 H        -0.578365         1.909315         0.651531
 H        -0.616933         1.547896        -1.105625
