19
Iteration:   650
 C        -2.965442        -1.411982         1.566378
 C        -1.798235        -0.429318         1.202511
 C        -1.999729         0.444579        -0.076677
 C        -1.737139        -0.942590        -0.860093
 C        -0.632292        -1.266694         0.270275
 O        -0.018909        -2.423865         0.169122
 C         0.283647        -0.024454         0.064352
 O         1.459519        -0.015963         0.433197
 C        -0.604586         1.153240        -0.212146
 H        -3.396684        -1.646152         0.579815
 H        -2.619667        -2.328317         2.039566
 H        -3.732883        -0.965039         2.272556
 H        -1.445445         0.019345         2.132928
 H        -2.905483         1.043323        -0.238145
 H        -2.613405        -1.562046        -0.820235
 H        -1.183996        -0.935130        -1.817021
 H         0.925531        -2.246892         0.589166
 H        -0.320310         2.007680         0.532017
 H        -0.446034         1.490054        -1.226264
