19
Iteration:  1732
 C        -2.841189        -1.432704         1.500250
 C        -1.628346        -0.586492         1.253116
 C        -1.894885         0.406723        -0.057100
 C        -1.760644        -0.772508        -0.881409
 C        -0.699079        -1.218102         0.142387
 O        -0.077160        -2.440447         0.394812
 C         0.201892        -0.017061         0.039908
 O         1.355768        -0.050788         0.437249
 C        -0.629506         1.214561        -0.263631
 H        -2.932432        -2.105093         0.563984
 H        -2.917527        -2.130103         2.282552
 H        -3.864654        -0.958845         1.327833
 H        -1.070547        -0.074612         1.978214
 H        -2.851731         0.966236        -0.035137
 H        -2.572177        -1.471420        -0.943026
 H        -1.376608        -0.660309        -1.867819
 H         0.821270        -2.271710         0.579270
 H        -0.320634         2.061643         0.405904
 H        -0.489098         1.483398        -1.259791
