19
Iteration:  1835
 C        -2.942797        -1.480224         1.638470
 C        -1.799877        -0.536217         1.128678
 C        -1.963571         0.361601        -0.086413
 C        -1.625749        -0.801146        -1.031485
 C        -0.750546        -1.209908         0.155437
 O        -0.187007        -2.434442         0.394994
 C         0.366382         0.032279         0.147901
 O         1.561802         0.005703         0.332315
 C        -0.644807         1.165255        -0.124141
 H        -3.451437        -2.045400         0.768826
 H        -2.351860        -2.456246         1.957502
 H        -3.658100        -1.081092         2.347108
 H        -1.294742        -0.105782         1.980251
 H        -2.939662         0.809074        -0.149514
 H        -2.555181        -1.385134        -1.111012
 H        -1.210948        -0.473394        -1.996552
 H         0.749581        -2.260708         0.603239
 H        -0.620495         2.117484         0.366609
 H        -0.466766         1.476449        -1.202835
