19
Iteration:  4417charge 0 multiplicity 1
 C        -3.054939        -1.589615         1.368543
 C        -1.899274        -0.557175         1.154575
 C        -1.939371         0.426163        -0.050061
 C        -1.516029        -0.862103        -0.945272
 C        -0.702641        -1.129340         0.380643
 O        -0.067393        -2.305725         0.650533
 C         0.313778         0.000471         0.183918
 O         1.522061        -0.086693         0.001189
 C        -0.646486         1.180595        -0.139209
 H        -3.830148        -1.764145         0.570526
 H        -2.660803        -2.338714         1.976928
 H        -3.782472        -1.073851         1.960630
 H        -1.752397        -0.253614         2.209631
 H        -2.845100         0.976408        -0.175310
 H        -2.372721        -1.557930        -1.096692
 H        -0.838979        -0.789654        -1.912319
 H         0.870821        -1.985655         0.327262
 H        -0.396324         1.869625         0.633695
 H        -0.458420         1.682703        -1.216724
