19
Iteration:  1722charge 0 multiplicity 1
 C        -2.795892        -1.456477         1.441822
 C        -1.637131        -0.544444         1.141260
 C        -1.953301         0.439550         0.002865
 C        -1.763822        -0.825755        -0.960019
 C        -0.691804        -1.218974         0.130822
 O        -0.136789        -2.425217         0.459639
 C         0.253442        -0.050341         0.097740
 O         1.413786        -0.015183         0.398717
 C        -0.627470         1.151600        -0.218010
 H        -2.986516        -2.329718         0.671111
 H        -2.704877        -1.856509         2.434785
 H        -3.627521        -0.709860         1.597584
 H        -1.266877        -0.202217         2.072929
 H        -2.931497         0.983336        -0.035574
 H        -2.643431        -1.443128        -1.005633
 H        -1.451990        -0.538374        -1.935650
 H         0.777578        -2.229100         0.498861
 H        -0.466610         1.889570         0.617416
 H        -0.673150         1.651039        -1.144868
