19
Iteration:  4041charge 0 multiplicity 1
 C        -2.936270        -1.309604         1.623511
 C        -1.759242        -0.491880         1.144080
 C        -2.019662         0.275634        -0.149325
 C        -1.702430        -0.892518        -1.011937
 C        -0.581013        -1.233022         0.177057
 O        -0.012292        -2.474379         0.347688
 C         0.298909        -0.017808         0.094665
 O         1.421239         0.023788         0.558945
 C        -0.672803         1.178647        -0.267545
 H        -3.484219        -1.649215         0.797906
 H        -2.696648        -2.210230         2.259585
 H        -3.662801        -0.681379         2.097077
 H        -1.332027         0.057906         1.996218
 H        -3.036283         0.797205        -0.297535
 H        -2.542488        -1.618471        -1.077740
 H        -1.280354        -0.703841        -2.073510
 H         0.992119        -2.309432         0.331049
 H        -0.577014         1.947721         0.495110
 H        -0.584403         1.576266        -1.214022
