19
Iteration:   546
 C        -2.871842        -1.627739         1.458779
 C        -1.784200        -0.483655         1.222218
 C        -2.030566         0.452483        -0.103621
 C        -1.621795        -0.768716        -0.938842
 C        -0.665706        -1.095814         0.315748
 O        -0.272357        -2.469608         0.538762
 C         0.328920         0.064922         0.058206
 O         1.549286        -0.059873         0.134169
 C        -0.623152         1.177348        -0.115607
 H        -3.092563        -2.376496         0.648203
 H        -2.563115        -2.266523         2.343702
 H        -3.891752        -1.339892         1.666338
 H        -1.616639         0.103780         2.143083
 H        -2.990470         1.067099        -0.095415
 H        -2.265169        -1.785007        -1.094953
 H        -0.996240        -0.617467        -1.836856
 H         0.753715        -2.473886         0.394806
 H        -0.354167         1.975932         0.526972
 H        -0.333452         1.676238        -1.084560
