19
Iteration:  2401
 C        -2.937322        -1.503054         1.649815
 C        -1.851439        -0.545848         1.148941
 C        -1.969986         0.417216        -0.072484
 C        -1.528583        -0.803892        -1.030379
 C        -0.689251        -1.115692         0.270635
 O        -0.069978        -2.337754         0.360077
 C         0.264612         0.052795         0.145387
 O         1.452450        -0.220319         0.243245
 C        -0.660639         1.147344        -0.120530
 H        -3.941327        -1.154771         1.250308
 H        -2.796614        -2.550449         1.338481
 H        -2.907044        -1.436183         2.720802
 H        -1.242328        -0.190702         2.078859
 H        -2.803723         1.034664        -0.399117
 H        -2.372238        -1.478165        -1.291034
 H        -1.166395        -0.436480        -2.049852
 H         0.861953        -2.139290         0.256468
 H        -0.744208         1.898499         0.682666
 H        -0.670800         1.704172        -0.997451
