19
Iteration:  1531
 C        -2.704456        -1.464151         1.640871
 C        -1.851156        -0.470558         1.054148
 C        -1.969274         0.413495        -0.201681
 C        -1.606162        -0.833214        -1.067609
 C        -0.704607        -1.185858         0.080241
 O        -0.279615        -2.527342         0.404551
 C         0.322272        -0.035230         0.187287
 O         1.520669         0.084884         0.386587
 C        -0.676512         1.126249        -0.041064
 H        -3.013867        -2.259203         0.990565
 H        -2.362799        -1.989188         2.610397
 H        -3.682450        -0.990573         2.126438
 H        -1.427189         0.135061         1.873536
 H        -2.922520         0.945320        -0.364609
 H        -2.448457        -1.561497        -0.977322
 H        -1.388823        -0.748188        -2.182490
 H         0.602866        -2.471650         0.700664
 H        -0.676773         1.770529         0.805315
 H        -0.395155         1.754899        -0.931808
