19
Iteration:   754
 C        -3.020306        -1.514246         1.474697
 C        -1.781263        -0.556098         1.238135
 C        -1.955481         0.419834        -0.061057
 C        -1.620831        -0.838539        -0.915230
 C        -0.594991        -1.136677         0.329626
 O        -0.115652        -2.441743         0.381515
 C         0.294124         0.025622         0.099430
 O         1.513025        -0.066037         0.150797
 C        -0.643182         1.236331        -0.091702
 H        -3.395971        -1.998986         0.566151
 H        -2.769402        -2.310631         2.307072
 H        -3.827070        -0.811554         1.741581
 H        -1.647781        -0.115804         2.274489
 H        -2.890590         0.844891        -0.360723
 H        -2.470055        -1.500281        -1.049291
 H        -1.114025        -0.816932        -1.925233
 H         0.724401        -2.232841         0.784892
 H        -0.646140         2.112131         0.615182
 H        -0.586484         1.433643        -1.220067
