19
Iteration:  1318
 C        -3.061136        -1.474067         1.641197
 C        -1.871945        -0.604903         1.046947
 C        -1.983592         0.396222        -0.100092
 C        -1.554769        -0.796823        -1.047206
 C        -0.716105        -1.148024         0.215222
 O         0.006154        -2.309655         0.474833
 C         0.282586        -0.007198         0.135142
 O         1.494064        -0.155496         0.148418
 C        -0.605090         1.191044         0.014248
 H        -3.645929        -2.174038         0.978026
 H        -2.577920        -2.182006         2.314674
 H        -3.858166        -0.905613         2.068806
 H        -1.533307        -0.067732         1.984508
 H        -2.933754         0.918305        -0.286859
 H        -2.270715        -1.554517        -1.293132
 H        -1.062735        -0.756817        -2.028676
 H         0.906631        -2.017726         0.497851
 H        -0.684066         1.836104         0.931622
 H        -0.354015         1.783979        -0.869110
