19
Iteration:  4492
 C        -2.982711        -1.458426         1.696805
 C        -1.819891        -0.565161         1.103645
 C        -2.025270         0.360717        -0.240613
 C        -1.562967        -0.825935        -1.029781
 C        -0.658943        -1.189704         0.262696
 O        -0.147011        -2.409213         0.488578
 C         0.336425         0.011593         0.118908
 O         1.536568        -0.011491         0.294215
 C        -0.641521         1.178906        -0.172738
 H        -3.408531        -2.278157         0.816216
 H        -2.516328        -1.910221         2.607495
 H        -3.867605        -0.874107         2.061135
 H        -1.487383        -0.070370         1.999957
 H        -2.978577         0.826616        -0.356185
 H        -2.391188        -1.513911        -1.110873
 H        -0.958863        -0.770300        -1.927596
 H         0.771629        -2.413763         0.120551
 H        -0.861760         1.819487         0.671070
 H        -0.407862         1.886563        -1.132098
