19
Iteration:   913
 C        -2.868178        -1.386182         1.641031
 C        -1.700130        -0.528029         1.172819
 C        -1.980695         0.426812        -0.145817
 C        -1.629018        -0.874151        -1.029360
 C        -0.711163        -1.225387         0.082466
 O        -0.084040        -2.455960         0.351605
 C         0.234631        -0.011553         0.190812
 O         1.447272        -0.032933         0.417700
 C        -0.688140         1.204350        -0.162295
 H        -3.534655        -1.927072         0.865300
 H        -2.383823        -2.104000         2.307934
 H        -3.717918        -1.004195         2.281469
 H        -1.197676        -0.074712         2.095765
 H        -2.997548         0.833205        -0.218366
 H        -2.571661        -1.584639        -0.949157
 H        -1.244579        -0.607853        -2.059397
 H         0.890422        -2.437096         0.224869
 H        -0.587411         2.105594         0.501460
 H        -0.488936         1.466443        -1.214006
