19
Iteration:  2695
 C        -2.866681        -1.444424         1.456099
 C        -1.817558        -0.482990         1.117628
 C        -1.962356         0.316259        -0.227431
 C        -1.578856        -0.971206        -1.025515
 C        -0.652917        -1.154881         0.296190
 O        -0.126029        -2.397706         0.648915
 C         0.246623         0.037263         0.091001
 O         1.430482        -0.053282         0.216339
 C        -0.685702         1.248819        -0.081910
 H        -3.534604        -1.583203         0.528478
 H        -2.376007        -2.394905         1.608195
 H        -3.461428        -1.153078         2.320914
 H        -1.367127         0.152859         2.016869
 H        -2.848288         0.888367        -0.392168
 H        -2.334857        -1.723808        -0.859188
 H        -1.257281        -0.934023        -2.084160
 H         0.897633        -2.121767         0.634440
 H        -0.634693         1.746775         0.936433
 H        -0.284953         1.866251        -0.924187
