19
Iteration:  3413charge 0 multiplicity 1
 C        -2.998203        -1.326989         1.699401
 C        -1.803894        -0.548906         1.182116
 C        -1.909482         0.292921        -0.204258
 C        -1.556223        -0.946887        -1.100705
 C        -0.726800        -1.231097         0.143248
 O        -0.052362        -2.454646         0.402684
 C         0.301093         0.028760         0.098408
 O         1.479026         0.048516         0.401286
 C        -0.687660         1.195995        -0.178131
 H        -3.328896        -2.182709         0.980733
 H        -2.724161        -1.914137         2.507803
 H        -3.891953        -0.742889         1.865373
 H        -1.356526        -0.073246         2.048892
 H        -2.830464         0.865064        -0.277761
 H        -2.443958        -1.548646        -1.079749
 H        -1.103435        -0.764751        -2.048160
 H         0.654266        -2.342861         1.022052
 H        -0.886866         1.911109         0.652781
 H        -0.470200         1.837843        -1.080607
