19
Iteration:  2109
 C        -2.945278        -1.398654         1.457023
 C        -1.710918        -0.511139         1.242267
 C        -1.990236         0.453449         0.044401
 C        -1.653076        -0.916010        -0.891005
 C        -0.664848        -1.175938         0.169122
 O        -0.081786        -2.512497         0.248887
 C         0.303055         0.009888         0.176131
 O         1.522941        -0.057410         0.289705
 C        -0.714275         1.252835        -0.175336
 H        -3.661242        -1.299577         0.723193
 H        -2.583598        -2.530441         1.605014
 H        -3.431601        -1.051375         2.373853
 H        -1.345668        -0.217944         2.275926
 H        -2.909908         0.937292        -0.231368
 H        -2.376085        -1.692414        -0.629209
 H        -1.625320        -0.837989        -1.983429
 H         0.714205        -2.462992         0.876291
 H        -0.717892         2.114320         0.496098
 H        -0.741763         1.699011        -1.260748
