19
Iteration:   750charge 0 multiplicity 1
 C        -2.997418        -1.512999         1.499414
 C        -1.797759        -0.574271         1.206755
 C        -1.946147         0.411034        -0.086409
 C        -1.640007        -0.848780        -0.925971
 C        -0.584155        -1.125678         0.312879
 O        -0.144017        -2.448193         0.380538
 C         0.315459         0.033844         0.147144
 O         1.500251        -0.068561         0.152322
 C        -0.625257         1.262581        -0.107335
 H        -3.279957        -1.985878         0.507873
 H        -2.609041        -2.124928         2.299590
 H        -3.868456        -0.913182         1.896089
 H        -1.754474        -0.117456         2.176372
 H        -2.959650         0.867173        -0.316364
 H        -2.545659        -1.538955        -0.982645
 H        -1.044337        -0.774739        -1.812964
 H         0.816130        -2.268187         0.748924
 H        -0.733429         2.048985         0.692714
 H        -0.547092         1.439962        -1.157474
