19
Iteration:  2690charge 0 multiplicity 1
 C        -2.863278        -1.467805         1.465609
 C        -1.841863        -0.449099         1.126014
 C        -1.950063         0.351653        -0.228231
 C        -1.619267        -0.939349        -1.033928
 C        -0.661888        -1.183268         0.259529
 O        -0.107068        -2.369682         0.638787
 C         0.246146        -0.015320         0.094164
 O         1.456769        -0.063551         0.251334
 C        -0.683388         1.277407        -0.098443
 H        -3.495771        -1.681503         0.630826
 H        -2.297315        -2.377870         1.833548
 H        -3.512659        -1.256153         2.332270
 H        -1.354453        -0.049083         1.932435
 H        -2.953076         0.885581        -0.411539
 H        -2.244818        -1.837729        -0.828676
 H        -1.092582        -0.923026        -1.992448
 H         0.780683        -2.111366         0.608258
 H        -0.726218         1.812486         0.823563
 H        -0.354524         1.697863        -1.044622
