19
Iteration:  3057charge 0 multiplicity 1
 C        -2.998695        -1.379150         1.423073
 C        -1.742061        -0.639743         1.173841
 C        -1.993974         0.329469        -0.155483
 C        -1.555172        -0.830789        -1.077149
 C        -0.671712        -1.235638         0.273321
 O         0.052652        -2.290825         0.771637
 C         0.227906         0.021315         0.134961
 O         1.423769        -0.151117         0.082293
 C        -0.733956         1.223650        -0.086518
 H        -3.715861        -0.891630         0.836303
 H        -2.874702        -2.521350         1.195510
 H        -3.494094        -1.388754         2.464074
 H        -1.242484        -0.273972         2.052776
 H        -2.907005         0.858401        -0.523797
 H        -2.376406        -1.525633        -1.329456
 H        -0.995220        -0.766129        -2.014469
 H         0.901713        -1.900719         0.908044
 H        -1.072455         2.015979         0.683141
 H        -0.364807         1.705370        -1.021537
