19
Iteration:  2223
 C        -3.046383        -1.531455         1.505213
 C        -1.759129        -0.618363         1.205978
 C        -1.958865         0.467785         0.059685
 C        -1.628893        -0.773571        -0.926974
 C        -0.585210        -1.180649         0.252924
 O        -0.195213        -2.517241         0.463127
 C         0.336578         0.038098         0.102642
 O         1.575659         0.013704         0.076112
 C        -0.662505         1.197666        -0.135544
 H        -3.739173        -1.884636         0.600274
 H        -2.695744        -2.341074         2.005197
 H        -3.790404        -1.025066         2.164872
 H        -1.366521        -0.137905         2.182427
 H        -2.918094         1.035713         0.077946
 H        -2.543163        -1.384597        -1.065095
 H        -1.220895        -0.574518        -1.916515
 H         0.816460        -2.443751         0.313485
 H        -0.578956         2.106208         0.461834
 H        -0.526786         1.623397        -1.081480
