19
Iteration:  1437charge 0 multiplicity 1
 C        -2.925835        -1.249522         1.737474
 C        -1.807482        -0.572219         1.091126
 C        -2.028480         0.278703        -0.164602
 C        -1.498540        -0.870030        -1.066697
 C        -0.693841        -1.227366         0.205836
 O        -0.049049        -2.461813         0.279460
 C         0.285332         0.020565         0.148765
 O         1.470464        -0.121711         0.345400
 C        -0.750368         1.262413        -0.046489
 H        -3.627922        -1.896042         1.086244
 H        -2.622671        -2.046063         2.434470
 H        -3.629620        -0.554946         2.259337
 H        -1.360884        -0.055400         2.012019
 H        -2.836000         0.992697        -0.401902
 H        -2.200608        -1.648642        -1.387521
 H        -0.955290        -0.686016        -1.997013
 H         0.854777        -2.242099         0.260112
 H        -0.930151         1.896615         0.885054
 H        -0.537160         1.970536        -0.878099
