19
Iteration:  3868charge 0 multiplicity 1
 C        -3.134815        -1.386802         1.376255
 C        -1.945989        -0.544692         1.148176
 C        -2.004083         0.321270        -0.089344
 C        -1.496769        -0.871824        -0.984231
 C        -0.604084        -1.153594         0.308967
 O         0.052789        -2.312454         0.626161
 C         0.293941        -0.023497         0.094827
 O         1.519869        -0.143736         0.026413
 C        -0.682521         1.175756         0.030506
 H        -3.210507        -2.111812         0.586563
 H        -2.979679        -1.992540         2.364149
 H        -4.025230        -0.836126         1.697470
 H        -1.715781         0.130868         2.006618
 H        -2.989714         0.875373        -0.210759
 H        -2.266287        -1.607776        -0.983062
 H        -0.941152        -0.912664        -1.911908
 H         0.962995        -1.963997         0.591943
 H        -0.596214         1.878041         0.908762
 H        -0.636428         1.750614        -0.975588
