19
Iteration:  4952charge 0 multiplicity 1
 C        -2.926432        -1.587992         1.531067
 C        -1.824742        -0.533313         1.070278
 C        -1.969051         0.444591        -0.195493
 C        -1.605738        -0.804898        -1.009498
 C        -0.715271        -1.153395         0.298028
 O        -0.092745        -2.298090         0.661228
 C         0.264727        -0.030199         0.149975
 O         1.490956        -0.093121         0.095039
 C        -0.632649         1.165795        -0.079438
 H        -3.407893        -2.160260         0.639339
 H        -2.648753        -2.310168         2.348346
 H        -3.778783        -1.019886         1.955166
 H        -1.510157        -0.074963         1.988331
 H        -2.968300         0.925991        -0.362687
 H        -2.207176        -1.632016        -0.993082
 H        -0.996213        -0.819833        -2.046040
 H         0.922850        -2.133400         0.566558
 H        -0.684150         1.810344         0.816931
 H        -0.318466         1.783745        -1.051903
