19
Iteration:  4844
 C        -2.876978        -1.353331         1.705174
 C        -1.793610        -0.499916         1.130660
 C        -2.015087         0.397284        -0.135167
 C        -1.531558        -0.956160        -1.096262
 C        -0.690447        -1.218459         0.123126
 O        -0.066232        -2.404490         0.375251
 C         0.218945         0.015250         0.180452
 O         1.402348        -0.028586         0.445914
 C        -0.692411         1.121456        -0.216091
 H        -3.385532        -1.859043         0.928159
 H        -2.504245        -2.159689         2.379795
 H        -3.539876        -0.660048         2.249669
 H        -1.198504        -0.033247         1.989666
 H        -3.055907         0.836290        -0.315344
 H        -2.285204        -1.635618        -1.107535
 H        -0.905430        -0.789874        -2.002269
 H         0.868584        -2.114100         0.397094
 H        -0.501805         1.939417         0.449330
 H        -0.437243         1.444068        -1.267534
