19
Iteration:  2905charge 0 multiplicity 1
 C        -2.897555        -1.336950         1.599676
 C        -1.790196        -0.439486         1.169651
 C        -2.030467         0.319952        -0.146093
 C        -1.546040        -0.917631        -0.982799
 C        -0.636628        -1.230927         0.165316
 O        -0.015978        -2.387352         0.396139
 C         0.291514        -0.019541         0.106348
 O         1.395043         0.016816         0.626617
 C        -0.735180         1.074133        -0.456755
 H        -3.419955        -0.989145         2.476216
 H        -3.796313        -1.192431         0.868209
 H        -2.736516        -2.462233         1.747118
 H        -1.368532         0.078718         2.068407
 H        -3.030999         0.703127        -0.219659
 H        -2.284315        -1.744604        -1.068061
 H        -1.053970        -0.760844        -1.923951
 H         0.919318        -2.250493         0.789219
 H        -0.662612         2.039222         0.135148
 H        -0.629083         1.228233        -1.552848
