19
Iteration:  4349charge 0 multiplicity 1
 C        -3.048177        -1.403160         1.625526
 C        -1.860195        -0.510660         1.122923
 C        -2.017409         0.383680        -0.144482
 C        -1.559674        -0.935708        -1.053491
 C        -0.607547        -1.205127         0.214758
 O        -0.065581        -2.517647         0.434270
 C         0.311937        -0.019645         0.222891
 O         1.534625         0.053396         0.295088
 C        -0.656671         1.217155        -0.164609
 H        -3.485658        -1.918550         0.732648
 H        -2.685151        -1.980767         2.448908
 H        -3.870369        -0.839413         1.974133
 H        -1.358635         0.056005         1.868463
 H        -2.957005         0.864477        -0.381454
 H        -2.427487        -1.652708        -1.161685
 H        -1.140817        -0.846083        -2.058791
 H         0.844440        -2.202549         0.683360
 H        -0.771790         1.955523         0.629225
 H        -0.528372         1.783838        -1.144949
