19
Iteration:  4235
 C        -2.967413        -1.426413         1.618176
 C        -1.776063        -0.513594         1.085860
 C        -2.055862         0.379219        -0.213742
 C        -1.523365        -0.901965        -1.006008
 C        -0.625839        -1.149667         0.233031
 O        -0.070066        -2.446997         0.379339
 C         0.273416         0.049234         0.202286
 O         1.460802        -0.043369         0.425888
 C        -0.718294         1.146028        -0.243387
 H        -3.698177        -1.766777         0.937592
 H        -2.479796        -2.112469         2.385269
 H        -3.518424        -0.881741         2.452556
 H        -1.424021         0.066280         1.948138
 H        -2.938818         1.045488        -0.492420
 H        -2.224949        -1.688456        -1.009489
 H        -1.114246        -0.834140        -1.949140
 H         0.879642        -2.473202         0.516398
 H        -0.804525         2.026422         0.525708
 H        -0.342594         1.581936        -1.173829
