19
Iteration:  2597
 C        -2.951326        -1.291710         1.623573
 C        -1.793319        -0.531518         1.145192
 C        -1.996949         0.276242        -0.152062
 C        -1.673087        -0.972932        -1.005432
 C        -0.632787        -1.203010         0.156734
 O        -0.107301        -2.507389         0.280868
 C         0.333787         0.052919         0.139913
 O         1.500874         0.100618         0.466822
 C        -0.636803         1.161042        -0.152083
 H        -2.587407        -2.343552         1.453762
 H        -3.173981        -1.049317         2.624229
 H        -3.803145        -1.031938         1.000432
 H        -1.254290         0.010105         1.911633
 H        -2.931296         0.753737        -0.406834
 H        -2.464514        -1.691943        -0.790011
 H        -1.269629        -1.012580        -2.045034
 H         0.622220        -2.354617         0.818158
 H        -0.794894         1.884565         0.690730
 H        -0.565642         1.565970        -1.151686
