19
Iteration:  2335charge 0 multiplicity 1
 C        -2.777390        -1.427247         1.599312
 C        -1.637601        -0.602577         1.154182
 C        -1.999918         0.360741        -0.016785
 C        -1.734481        -0.813215        -1.011916
 C        -0.665226        -1.209764         0.082232
 O        -0.276568        -2.499972         0.332861
 C         0.313834        -0.003969         0.052420
 O         1.465346         0.038734         0.449123
 C        -0.654474         1.237892        -0.130509
 H        -3.152522        -1.928764         0.679068
 H        -2.586214        -2.179940         2.432371
 H        -3.557885        -0.784311         1.971522
 H        -1.035185        -0.167852         2.040251
 H        -2.678194         1.179017        -0.121206
 H        -2.503616        -1.594606        -1.196092
 H        -1.440572        -0.573163        -2.060612
 H         0.686782        -2.612230         0.585557
 H        -0.515569         2.025730         0.639436
 H        -0.515162         1.625419        -1.088778
