19
Iteration:  2738charge 0 multiplicity 1
 C        -3.218279        -1.484408         1.458120
 C        -1.911803        -0.575029         1.181468
 C        -1.952245         0.319630        -0.100308
 C        -1.465930        -0.873055        -1.033244
 C        -0.575056        -1.197479         0.420918
 O        -0.052106        -2.438251         0.671958
 C         0.315145         0.117716         0.195242
 O         1.516825         0.058406        -0.018439
 C        -0.596040         1.156205        -0.169316
 H        -4.097496        -1.040923         0.822565
 H        -3.168000        -2.503651         1.285755
 H        -3.555850        -1.443295         2.492046
 H        -1.674153         0.111092         2.056725
 H        -2.919843         0.703357        -0.354226
 H        -2.252467        -1.556812        -1.234265
 H        -0.853250        -0.579538        -1.853087
 H         0.926490        -2.467957         0.666075
 H        -0.533059         1.978020         0.586700
 H        -0.584099         1.429852        -1.216114
