19
Iteration:  2764charge 0 multiplicity 1
 C        -3.065180        -1.412547         1.349589
 C        -1.863754        -0.547700         1.174742
 C        -2.005336         0.369565        -0.136262
 C        -1.475372        -0.947715        -0.932212
 C        -0.652703        -1.185609         0.390988
 O        -0.007825        -2.343728         0.689239
 C         0.267059         0.054249         0.131659
 O         1.489507        -0.070634         0.060352
 C        -0.668520         1.188628        -0.120604
 H        -3.918198        -0.956934         0.957803
 H        -2.956243        -2.432061         0.752592
 H        -3.319261        -1.699215         2.426338
 H        -1.471046         0.062893         2.099898
 H        -3.009663         0.721400        -0.407146
 H        -2.281572        -1.737805        -0.937310
 H        -0.984473        -0.817008        -1.983944
 H         0.866858        -2.176818         0.433846
 H        -0.603684         1.969122         0.673571
 H        -0.593502         1.585607        -1.156682
