19
Iteration:  4496charge 0 multiplicity 1
 C        -2.995463        -1.444604         1.692968
 C        -1.852654        -0.557247         1.071445
 C        -2.042775         0.353049        -0.228880
 C        -1.590064        -0.831067        -0.991080
 C        -0.642689        -1.175994         0.242259
 O        -0.121006        -2.442701         0.474782
 C         0.343217         0.004520         0.129988
 O         1.545742        -0.020324         0.316488
 C        -0.649674         1.210197        -0.192597
 H        -3.294998        -2.230952         1.006645
 H        -2.575600        -1.932556         2.557044
 H        -3.820675        -0.843198         2.079608
 H        -1.347096        -0.097214         1.986007
 H        -3.067856         0.804979        -0.333631
 H        -2.356545        -1.594283        -1.177252
 H        -0.909918        -0.685268        -1.953637
 H         0.760948        -2.282170         0.099374
 H        -0.747672         1.921878         0.649294
 H        -0.409090         1.753969        -1.121738
