19
Iteration:   429
 C        -3.087345        -1.385289         1.626031
 C        -1.750038        -0.580829         1.180596
 C        -2.057890         0.301722        -0.050919
 C        -1.596349        -0.860189        -1.041510
 C        -0.617237        -1.223209         0.041616
 O        -0.105737        -2.455380         0.429087
 C         0.328066        -0.007446         0.112524
 O         1.543934         0.033616         0.348369
 C        -0.652683         1.196967        -0.124361
 H        -3.623854        -1.572470         0.710698
 H        -2.801520        -2.242185         2.272105
 H        -3.631540        -0.581268         2.146317
 H        -1.399639         0.035667         2.025325
 H        -3.039514         0.872057        -0.184383
 H        -2.303152        -1.691159        -1.216108
 H        -1.200605        -0.578099        -1.961846
 H         0.917494        -2.377226         0.243843
 H        -0.361973         1.796864         0.761521
 H        -0.497659         1.893757        -1.023293
