19
Iteration:   504
 C        -2.980986        -1.509412         1.448516
 C        -1.783461        -0.593280         1.135934
 C        -2.050711         0.421398        -0.031187
 C        -1.706244        -0.814515        -0.984938
 C        -0.658241        -1.173198         0.240408
 O        -0.107354        -2.375417         0.611645
 C         0.331882        -0.020398         0.070800
 O         1.545204        -0.057291         0.127353
 C        -0.601601         1.199865        -0.058839
 H        -3.177159        -2.239128         0.668259
 H        -2.810811        -2.055744         2.394209
 H        -3.651372        -0.702215         1.454491
 H        -1.412245        -0.292590         2.103523
 H        -3.021920         1.025023        -0.154275
 H        -2.389443        -1.673373        -1.311137
 H        -1.228533        -0.420797        -1.828693
 H         0.832887        -2.442844         0.306564
 H        -0.562374         1.845165         0.773415
 H        -0.326201         1.867120        -0.935882
