19
Iteration:  1236charge 0 multiplicity 1
 C        -2.844001        -1.514684         1.565155
 C        -1.780021        -0.501632         1.178150
 C        -1.988773         0.459368        -0.069073
 C        -1.727903        -0.866628        -0.980865
 C        -0.661226        -1.190461         0.154556
 O        -0.144072        -2.480511         0.304726
 C         0.310792         0.044428         0.139183
 O         1.501409        -0.015551         0.456555
 C        -0.613763         1.185350        -0.245002
 H        -3.213614        -2.136983         0.745818
 H        -2.491956        -2.231266         2.283028
 H        -3.771657        -1.062033         2.107208
 H        -1.469188        -0.091685         2.200559
 H        -2.846405         1.101330        -0.289030
 H        -2.589878        -1.555910        -0.898625
 H        -1.368601        -0.576329        -1.954525
 H         0.624950        -2.400443         0.843765
 H        -0.608469         2.114995         0.316472
 H        -0.455811         1.500074        -1.301437
