19
Iteration:  1445
 C        -2.993827        -1.313592         1.701472
 C        -1.795347        -0.532863         1.077643
 C        -1.978750         0.347139        -0.176872
 C        -1.566765        -0.920002        -1.010021
 C        -0.668153        -1.221183         0.140876
 O        -0.007790        -2.438909         0.273978
 C         0.271939         0.032292         0.075698
 O         1.458268        -0.140803         0.406798
 C        -0.745069         1.239142        -0.019524
 H        -3.471323        -1.845154         1.002162
 H        -2.575152        -1.893327         2.573403
 H        -3.527327        -0.513647         2.323578
 H        -1.319997        -0.015373         1.887562
 H        -2.946577         0.909408        -0.205963
 H        -2.395177        -1.618460        -1.016182
 H        -1.050122        -0.635775        -1.922638
 H         0.927058        -2.163100         0.291927
 H        -0.743947         1.875566         0.841156
 H        -0.527949         1.708386        -1.005922
