19
Iteration:   406charge 0 multiplicity 1
 C        -2.866755        -1.465924         1.492265
 C        -1.704412        -0.600093         1.118707
 C        -1.884924         0.387563        -0.140211
 C        -1.796120        -0.853485        -0.981810
 C        -0.663216        -1.190935         0.164543
 O        -0.174416        -2.496170         0.467127
 C         0.288030         0.012895         0.124824
 O         1.484750         0.078205         0.426221
 C        -0.645295         1.178915        -0.129119
 H        -3.450821        -1.837321         0.634794
 H        -2.411478        -2.242801         2.175801
 H        -3.430020        -0.742136         2.039375
 H        -1.408134        -0.035790         2.001356
 H        -2.679374         1.213066        -0.251516
 H        -2.662327        -1.580753        -0.970395
 H        -1.550205        -0.674392        -1.938544
 H         0.631350        -2.450857         0.025662
 H        -0.474455         1.992913         0.552227
 H        -0.392815         1.529470        -1.204789
