19
Iteration:  2983
 C        -2.952505        -1.470511         1.448460
 C        -1.766513        -0.499896         1.145808
 C        -1.982543         0.382314        -0.190370
 C        -1.401792        -0.873858        -0.971051
 C        -0.621557        -1.197912         0.311977
 O        -0.207955        -2.436059         0.696002
 C         0.287650         0.007009         0.137258
 O         1.467750         0.026641         0.067143
 C        -0.770905         1.179755        -0.123995
 H        -3.912511        -0.998569         1.547541
 H        -2.974877        -2.397269         0.675854
 H        -2.907643        -1.985729         2.479190
 H        -1.478928         0.053318         2.092457
 H        -2.997415         0.771161        -0.481028
 H        -2.079244        -1.672208        -1.233646
 H        -0.785015        -0.649840        -1.864441
 H         0.505882        -2.330789         1.286897
 H        -0.616884         2.089537         0.544489
 H        -0.548315         1.465408        -1.214090
