19
Iteration:  4465
 C        -2.863351        -1.466280         1.496136
 C        -1.797354        -0.487912         1.048268
 C        -2.034439         0.358971        -0.154759
 C        -1.537265        -0.889192        -0.996576
 C        -0.680196        -1.212432         0.220124
 O        -0.216176        -2.431324         0.648269
 C         0.260537         0.005921         0.145329
 O         1.490588         0.002622         0.111314
 C        -0.616036         1.227575        -0.006308
 H        -3.225452        -1.943419         0.711126
 H        -2.338323        -2.104811         2.206667
 H        -3.789834        -1.072612         1.917664
 H        -1.399026        -0.023039         2.010984
 H        -3.044456         0.829125        -0.342189
 H        -2.301646        -1.658317        -1.204641
 H        -0.951748        -0.724462        -1.937277
 H         0.760964        -2.470656         0.658246
 H        -0.710721         2.001134         0.791453
 H        -0.312475         1.701993        -0.852314
