19
Iteration:  4841charge 0 multiplicity 1
 C        -2.867143        -1.359725         1.697115
 C        -1.781323        -0.495653         1.160307
 C        -2.046978         0.410150        -0.155256
 C        -1.532903        -0.947305        -1.094263
 C        -0.710487        -1.190329         0.132596
 O        -0.059357        -2.437243         0.382431
 C         0.225399         0.005642         0.175811
 O         1.413377        -0.041571         0.454070
 C        -0.708484         1.144082        -0.214203
 H        -3.407455        -1.899492         0.829103
 H        -2.443291        -2.096217         2.347621
 H        -3.456996        -0.678237         2.272774
 H        -1.175956        -0.108331         1.888503
 H        -2.998209         0.780136        -0.386605
 H        -2.329768        -1.625509        -1.104506
 H        -0.894073        -0.809074        -2.015591
 H         0.897704        -2.014273         0.390927
 H        -0.553039         2.003367         0.425609
 H        -0.382411         1.418007        -1.311974
