19
Iteration:  4820charge 0 multiplicity 1
 C        -2.823210        -1.443229         1.661001
 C        -1.800982        -0.456897         1.093883
 C        -1.966229         0.369869        -0.216706
 C        -1.697727        -0.902266        -1.028117
 C        -0.603044        -1.221916         0.205189
 O        -0.082403        -2.421130         0.416237
 C         0.256336         0.040447         0.155238
 O         1.430884        -0.104778         0.470486
 C        -0.709011         1.215532        -0.280490
 H        -3.341544        -1.949643         0.769271
 H        -2.380525        -2.275845         2.169971
 H        -3.451910        -0.881499         2.317368
 H        -1.448704         0.221613         1.874599
 H        -2.918548         0.851167        -0.287083
 H        -2.459692        -1.514992        -0.957188
 H        -1.146800        -0.584148        -1.964182
 H         0.844162        -2.245327         0.752576
 H        -0.755498         1.934775         0.512225
 H        -0.526590         1.748598        -1.313005
