19
Iteration:  1194charge 0 multiplicity 1
 C        -2.727435        -1.509472         1.732744
 C        -1.770299        -0.500676         1.096949
 C        -2.010892         0.350523        -0.217671
 C        -1.683203        -0.785602        -1.217444
 C        -0.710813        -1.128193         0.040893
 O        -0.129919        -2.368740         0.434034
 C         0.252438         0.005391         0.176043
 O         1.428138        -0.200355         0.459035
 C        -0.696959         1.189823        -0.090896
 H        -3.405853        -1.976553         1.179225
 H        -2.025868        -2.021535         2.403180
 H        -3.416746        -0.941287         2.361445
 H        -1.308794         0.126365         1.925933
 H        -2.845676         1.040646        -0.288198
 H        -2.500759        -1.531517        -1.308596
 H        -1.061584        -0.550433        -2.012071
 H         0.876377        -2.196857         0.626361
 H        -0.673668         1.954422         0.683439
 H        -0.385985         1.845621        -0.970141
