19
Iteration:   621charge 0 multiplicity 1
 C        -2.989736        -1.271546         1.664065
 C        -1.742477        -0.657417         1.108910
 C        -2.058451         0.338696        -0.034200
 C        -1.705014        -0.881855        -1.089114
 C        -0.623065        -1.212080         0.205142
 O         0.015438        -2.397783         0.302136
 C         0.296785         0.006541         0.146593
 O         1.500531        -0.060168         0.383955
 C        -0.685402         1.156235        -0.126315
 H        -3.712077        -1.571201         0.816097
 H        -3.049787        -2.254949         2.168772
 H        -3.531646        -0.492573         2.225519
 H        -1.255312        -0.151981         2.013905
 H        -2.989977         0.957182         0.052565
 H        -2.592028        -1.689095        -1.134858
 H        -1.231032        -0.607053        -2.045011
 H         1.044667        -2.215365         0.334604
 H        -0.483006         2.140565         0.388019
 H        -0.495875         1.575746        -1.157423
