19
Iteration:  3354charge 0 multiplicity 1
 C        -3.058622        -1.477988         1.366609
 C        -1.847977        -0.632677         1.166136
 C        -2.007497         0.373407        -0.123983
 C        -1.562180        -0.902066        -0.882073
 C        -0.636707        -1.105349         0.293535
 O        -0.038673        -2.340791         0.695222
 C         0.277050         0.034946         0.026319
 O         1.479795        -0.076731         0.129253
 C        -0.614492         1.227279        -0.142728
 H        -3.633322        -1.378051         0.549905
 H        -2.800461        -2.517886         1.592618
 H        -3.550796        -1.120212         2.253060
 H        -1.429440        -0.216761         2.135086
 H        -2.923877         0.970277        -0.196812
 H        -2.289127        -1.754665        -0.916259
 H        -1.166907        -0.858491        -1.929519
 H         0.887446        -2.235026         0.281666
 H        -0.622722         1.866477         0.721185
 H        -0.257213         1.829389        -0.984533
