19
Iteration:  3285
 C        -2.947191        -1.541101         1.453297
 C        -1.888170        -0.461879         1.147226
 C        -2.017318         0.345052        -0.161319
 C        -1.495490        -0.952280        -0.969712
 C        -0.674179        -1.081694         0.347163
 O        -0.175509        -2.378977         0.650153
 C         0.315906         0.077668         0.178906
 O         1.530806        -0.072453         0.034964
 C        -0.646446         1.218557        -0.048128
 H        -3.504662        -1.671757         0.618803
 H        -2.495059        -2.515813         1.750550
 H        -3.524762        -1.290027         2.369043
 H        -1.460541         0.003855         2.080949
 H        -2.910625         0.767507        -0.668661
 H        -2.145935        -1.806079        -1.164735
 H        -1.018939        -0.739405        -1.985329
 H         0.570227        -2.450847         0.076804
 H        -0.708392         2.066485         0.674518
 H        -0.387669         1.725399        -0.936429
