19
Iteration:  3832
 C        -2.952432        -1.467158         1.454428
 C        -1.806396        -0.562440         1.108249
 C        -1.953850         0.407868        -0.115361
 C        -1.544798        -0.886096        -1.005362
 C        -0.649582        -1.212734         0.279680
 O        -0.177644        -2.448696         0.666863
 C         0.282704         0.014961         0.129220
 O         1.509142         0.053388         0.151824
 C        -0.661582         1.223673        -0.128548
 H        -3.395928        -1.940075         0.602120
 H        -2.566222        -2.309089         1.957649
 H        -3.812177        -0.977641         1.889672
 H        -1.541323        -0.058779         1.987284
 H        -2.954038         0.929262        -0.319129
 H        -2.445782        -1.630827        -0.934541
 H        -1.089740        -0.920684        -2.059959
 H         0.760502        -2.548850         0.722044
 H        -0.551338         2.096028         0.608182
 H        -0.410353         1.586886        -1.075386
