19
Iteration:   376
 C        -2.727924        -1.575444         1.597522
 C        -1.792703        -0.468200         1.151332
 C        -1.987729         0.420203        -0.121930
 C        -1.590983        -0.788254        -1.022492
 C        -0.730900        -1.135891         0.235761
 O        -0.284523        -2.416070         0.371648
 C         0.330567        -0.006560         0.095048
 O         1.478418        -0.102891         0.476431
 C        -0.703244         1.172593        -0.257143
 H        -3.071840        -2.115584         0.728429
 H        -2.071106        -2.075908         2.317269
 H        -3.627856        -1.295804         2.197225
 H        -1.454190         0.089664         2.087142
 H        -2.830484         1.122543        -0.303514
 H        -2.315454        -1.591706        -1.242496
 H        -1.003624        -0.500513        -1.964913
 H         0.688030        -2.241706         0.521598
 H        -0.496839         2.048933         0.404478
 H        -0.628064         1.553057        -1.307040
