19
Iteration:  3202charge 0 multiplicity 1
 C        -2.914371        -1.377825         1.686179
 C        -1.904543        -0.307440         1.135950
 C        -2.006361         0.366845        -0.144787
 C        -1.620575        -1.029721        -0.942281
 C        -0.635555        -1.184517         0.137519
 O         0.010907        -2.441895         0.257152
 C         0.219871        -0.025634         0.203469
 O         1.425099        -0.039653         0.469961
 C        -0.612547         1.178807        -0.254808
 H        -2.929453        -2.317575         0.996648
 H        -2.542262        -1.804089         2.690231
 H        -3.963660        -1.066314         1.541631
 H        -1.442262         0.291700         1.931195
 H        -3.024352         0.824407        -0.317468
 H        -2.455472        -1.693202        -0.891467
 H        -1.119246        -1.056193        -1.937318
 H         0.930691        -2.157747         0.435801
 H        -0.666102         1.954683         0.509113
 H        -0.211223         1.398798        -1.305769
