19
Iteration:  2537
 C        -2.860557        -1.487104         1.479935
 C        -1.779186        -0.532139         1.110129
 C        -2.061796         0.436009        -0.142780
 C        -1.662728        -0.831824        -0.984768
 C        -0.684441        -1.091296         0.167187
 O        -0.065987        -2.367597         0.568511
 C         0.276971        -0.008603         0.132585
 O         1.466788        -0.170153         0.252689
 C        -0.634824         1.174491        -0.105623
 H        -2.588855        -2.112908         2.312358
 H        -3.855600        -1.069617         1.831180
 H        -3.088034        -2.260532         0.708963
 H        -1.388117         0.062427         2.045419
 H        -2.882743         1.152644        -0.374507
 H        -2.470452        -1.596466        -0.858936
 H        -1.236579        -0.851989        -1.994741
 H         0.981560        -2.261063         0.594534
 H        -0.702964         1.798231         0.761901
 H        -0.437295         1.940900        -0.905960
