19
Iteration:   673
 C        -2.865884        -1.479478         1.638319
 C        -1.750309        -0.466898         1.137862
 C        -1.977029         0.377098        -0.100788
 C        -1.663145        -0.838775        -0.975380
 C        -0.674776        -1.154867         0.143387
 O        -0.150639        -2.450875         0.318637
 C         0.279666         0.034028         0.172711
 O         1.464789        -0.059953         0.400349
 C        -0.646941         1.142878        -0.216275
 H        -3.365247        -1.974938         0.733099
 H        -2.343840        -2.272720         2.179807
 H        -3.604339        -1.055534         2.375957
 H        -1.263804        -0.023895         2.027956
 H        -2.913642         0.941647        -0.281561
 H        -2.545669        -1.510428        -1.015427
 H        -1.254170        -0.496604        -1.922536
 H         0.748708        -2.262136         0.546698
 H        -0.654608         1.988338         0.580618
 H        -0.385661         1.583286        -1.187933
