19
Iteration:   389charge 0 multiplicity 1
 C        -2.754759        -1.528212         1.535397
 C        -1.766015        -0.434973         1.156098
 C        -2.014125         0.466984        -0.098563
 C        -1.648097        -0.821150        -0.969124
 C        -0.682164        -1.162107         0.147197
 O        -0.222403        -2.491439         0.423808
 C         0.232175        -0.022873         0.188995
 O         1.439073        -0.008197         0.436560
 C        -0.591320         1.200645        -0.262680
 H        -3.069290        -2.151512         0.696455
 H        -2.310954        -2.389584         2.020414
 H        -3.682181        -1.226382         2.107114
 H        -1.162538        -0.005068         2.006954
 H        -2.999393         0.840382        -0.164535
 H        -2.486008        -1.460141        -1.000396
 H        -1.199980        -0.733343        -2.097984
 H         0.695451        -2.636062         0.212513
 H        -0.452362         2.054729         0.470727
 H        -0.250832         1.441509        -1.237216
