19
Iteration:   592
 C        -2.931282        -1.343132         1.714514
 C        -1.800198        -0.554978         1.119471
 C        -1.964510         0.359053        -0.121523
 C        -1.556164        -0.811461        -1.165706
 C        -0.622366        -1.226308         0.208657
 O        -0.020343        -2.463898         0.403624
 C         0.189983        -0.048453         0.114910
 O         1.385108        -0.067334         0.243749
 C        -0.670989         1.212673        -0.013010
 H        -3.504129        -1.805447         0.941977
 H        -2.671627        -2.191994         2.384284
 H        -3.690884        -0.766484         2.201486
 H        -1.302619        -0.002126         1.897089
 H        -2.860859         0.958945        -0.265426
 H        -2.435455        -1.465269        -1.176421
 H        -1.202408        -0.574833        -2.169546
 H         0.998534        -2.335119         0.602990
 H        -0.585884         1.773396         0.869823
 H        -0.449894         1.966710        -0.797766
