19
Iteration:  2425charge 0 multiplicity 1
 C        -3.029752        -1.387571         1.560554
 C        -1.803457        -0.556384         1.101453
 C        -2.013398         0.404762        -0.065546
 C        -1.652589        -0.834545        -1.019285
 C        -0.643410        -1.258773         0.193152
 O        -0.016754        -2.403905         0.492386
 C         0.284505        -0.067383         0.107983
 O         1.492949        -0.068946         0.135461
 C        -0.623273         1.244579         0.036859
 H        -3.968572        -0.939193         1.438150
 H        -3.026798        -2.319502         0.815686
 H        -2.858176        -1.815023         2.571142
 H        -1.162071        -0.144745         2.021029
 H        -2.952651         0.907758        -0.177579
 H        -2.440801        -1.578273        -1.197561
 H        -1.379420        -0.559583        -2.120457
 H         0.988032        -2.175642         0.640576
 H        -0.815878         1.852176         0.906945
 H        -0.358008         1.912010        -0.788903
