19
Iteration:  4767charge 0 multiplicity 1
 C        -2.927179        -1.446593         1.545912
 C        -1.808608        -0.507549         1.133294
 C        -2.009873         0.414577        -0.105862
 C        -1.525554        -0.853140        -0.989370
 C        -0.606916        -1.199843         0.188770
 O        -0.144106        -2.468833         0.568564
 C         0.279841        -0.022867         0.110569
 O         1.468753        -0.020312         0.295330
 C        -0.727863         1.223023        -0.189867
 H        -3.425422        -1.985528         0.677944
 H        -2.326070        -2.121310         2.171212
 H        -3.726404        -1.060079         2.166756
 H        -1.365628         0.060616         2.071959
 H        -2.995700         0.917054        -0.308185
 H        -2.194222        -1.719541        -1.100075
 H        -1.079676        -0.621016        -2.099731
 H         0.886860        -2.420165         0.381385
 H        -0.592812         2.117363         0.341048
 H        -0.599339         1.481464        -1.298083
