19
Iteration:  4133
 C        -2.984573        -1.604740         1.470281
 C        -1.938646        -0.534452         1.106023
 C        -1.929294         0.457501        -0.137949
 C        -1.514924        -0.802451        -1.053466
 C        -0.630081        -1.132773         0.309061
 O        -0.099049        -2.340209         0.692628
 C         0.294039         0.032321         0.170242
 O         1.483386        -0.171109         0.001981
 C        -0.687781         1.256743        -0.017961
 H        -3.152192        -2.378850         0.570451
 H        -2.441728        -2.159392         2.226250
 H        -4.057973        -1.239093         1.660101
 H        -1.533231        -0.073049         2.024037
 H        -2.833853         0.958586        -0.277162
 H        -2.329464        -1.536465        -1.268823
 H        -0.899461        -0.636983        -1.957393
 H         0.805506        -2.457164         1.032441
 H        -0.622808         1.863042         0.877819
 H        -0.524860         1.891087        -1.016945
