19
Iteration:  2621charge 0 multiplicity 1
 C        -2.893375        -1.363101         1.553683
 C        -1.672732        -0.463442         1.120614
 C        -1.973086         0.338788        -0.185869
 C        -1.710594        -0.998012        -0.984972
 C        -0.603218        -1.198757         0.186913
 O        -0.097339        -2.473862         0.333020
 C         0.266454        -0.051204         0.104946
 O         1.393502         0.052220         0.512779
 C        -0.656675         1.214720        -0.175505
 H        -2.724823        -2.341148         1.231433
 H        -2.766670        -1.321778         2.680666
 H        -3.871586        -0.893815         1.289185
 H        -1.334798         0.190136         1.848465
 H        -2.886749         0.841682        -0.357240
 H        -2.466712        -1.742871        -0.762375
 H        -1.478517        -0.810148        -2.084933
 H         0.839372        -2.325994         0.753202
 H        -0.723025         1.836887         0.716945
 H        -0.540931         1.677005        -1.146432
