19
Iteration:  2098charge 0 multiplicity 1
 C        -2.930562        -1.343076         1.493128
 C        -1.700090        -0.549065         1.222818
 C        -1.947392         0.319623        -0.020590
 C        -1.724044        -0.930628        -0.913044
 C        -0.603519        -1.191502         0.244555
 O        -0.131364        -2.476433         0.217468
 C         0.332418         0.073664         0.052771
 O         1.507029        -0.015139         0.336828
 C        -0.733333         1.229166        -0.101304
 H        -3.593536        -1.415391         0.707479
 H        -2.609214        -2.466026         1.738625
 H        -3.462621        -1.035755         2.391260
 H        -1.256467         0.059946         2.059885
 H        -2.907677         0.806049         0.034113
 H        -2.632365        -1.534029        -0.912433
 H        -1.385116        -0.755556        -1.957059
 H         0.382022        -2.651449         0.986258
 H        -0.623617         2.047411         0.605093
 H        -0.373575         1.625319        -1.129363
