19
Iteration:   744
 C        -2.950680        -1.489839         1.515249
 C        -1.849866        -0.569992         1.138552
 C        -1.954650         0.381716        -0.113375
 C        -1.641735        -0.857261        -0.923605
 C        -0.651118        -1.141029         0.268333
 O        -0.160130        -2.438062         0.397406
 C         0.313244         0.057535         0.231818
 O         1.519729        -0.069019         0.156774
 C        -0.629337         1.255401        -0.124398
 H        -3.165397        -2.136829         0.680203
 H        -2.398623        -2.095815         2.322299
 H        -3.816937        -1.140034         2.066858
 H        -1.589149         0.042439         2.079681
 H        -2.864092         0.947308        -0.154218
 H        -2.423658        -1.581485        -0.916033
 H        -1.034461        -0.681832        -1.850528
 H         0.791682        -2.541612         0.557850
 H        -0.687334         1.992493         0.686921
 H        -0.332553         1.784264        -1.117020
