19
Iteration:  4149charge 0 multiplicity 1
 C        -3.001120        -1.596934         1.382730
 C        -1.927435        -0.540234         1.123538
 C        -2.014011         0.382929        -0.095332
 C        -1.430361        -0.750676        -0.949375
 C        -0.731427        -1.164170         0.377514
 O        -0.073222        -2.361501         0.691998
 C         0.257438        -0.003696         0.107967
 O         1.483814        -0.117768        -0.001103
 C        -0.599834         1.226065        -0.054210
 H        -3.278765        -2.236354         0.630722
 H        -2.730137        -2.306959         2.212289
 H        -3.785006        -1.016977         1.862737
 H        -1.623417         0.049793         2.083448
 H        -2.953538         0.944478        -0.480237
 H        -2.171019        -1.478544        -1.197561
 H        -0.811977        -0.506131        -1.830620
 H         0.870953        -2.086551         0.308322
 H        -0.503459         2.094628         0.760891
 H        -0.359233         1.682029        -0.975574
