19
Iteration:  2518
 C        -2.878347        -1.554561         1.458518
 C        -1.820773        -0.459287         1.084080
 C        -1.908164         0.381628        -0.133621
 C        -1.716927        -0.894975        -1.007189
 C        -0.706706        -1.131630         0.242848
 O        -0.107816        -2.322948         0.599061
 C         0.305669        -0.031708         0.041146
 O         1.503922        -0.153663         0.177920
 C        -0.653858         1.252733         0.016175
 H        -2.839474        -1.844060         2.601473
 H        -3.804213        -1.158184         1.329011
 H        -2.793883        -2.427239         0.870316
 H        -1.520577         0.101275         1.977234
 H        -2.938467         0.839992        -0.192005
 H        -2.656399        -1.398384        -1.238382
 H        -1.328614        -0.775242        -1.979336
 H         0.928477        -2.100951         0.691818
 H        -0.626271         1.813410         1.009829
 H        -0.342315         1.940361        -0.787541
