19
Iteration:  4298
 C        -2.771017        -1.493225         1.598643
 C        -1.701918        -0.487064         1.115505
 C        -1.970366         0.384960        -0.172564
 C        -1.727585        -0.927487        -1.039462
 C        -0.683292        -1.163872         0.106289
 O        -0.171004        -2.469403         0.436173
 C         0.313165         0.069124         0.056091
 O         1.396105        -0.016730         0.632842
 C        -0.637210         1.203546        -0.294015
 H        -3.030967        -2.399664         0.943004
 H        -2.344559        -1.831222         2.567429
 H        -3.751685        -0.942513         1.782478
 H        -1.124690         0.007446         2.006172
 H        -2.916678         0.900047        -0.286461
 H        -2.694864        -1.519832        -1.127821
 H        -1.267590        -0.790418        -2.111278
 H         0.660301        -2.142143         0.909828
 H        -0.628439         2.074537         0.291202
 H        -0.501860         1.502500        -1.377876
