19
Iteration:  1189charge 0 multiplicity 1
 C        -2.760904        -1.475783         1.751383
 C        -1.760804        -0.534596         1.003987
 C        -2.006191         0.331492        -0.201881
 C        -1.658908        -0.744916        -1.181607
 C        -0.677769        -1.169725         0.096975
 O        -0.128801        -2.360918         0.422280
 C         0.259441        -0.011015         0.171143
 O         1.420315        -0.183118         0.444631
 C        -0.679134         1.199602        -0.112091
 H        -3.531015        -2.268210         1.212259
 H        -2.110386        -2.055329         2.424037
 H        -3.365100        -0.906069         2.517261
 H        -1.476154         0.100364         1.864878
 H        -2.918381         0.970498        -0.150857
 H        -2.523372        -1.396802        -1.227797
 H        -1.062334        -0.355616        -2.099248
 H         0.751359        -2.173358         0.702464
 H        -0.626950         1.969863         0.688341
 H        -0.529235         1.784347        -1.002429
