19
Iteration:  2586
 C        -3.020393        -1.362458         1.637856
 C        -1.747139        -0.522297         1.124936
 C        -1.928939         0.293081        -0.155229
 C        -1.591585        -0.913111        -0.996180
 C        -0.620149        -1.207696         0.211910
 O        -0.108330        -2.473416         0.300820
 C         0.297521        -0.014847         0.138820
 O         1.481565         0.091879         0.424782
 C        -0.694765         1.172311        -0.179955
 H        -2.906480        -2.461190         1.884557
 H        -3.194980        -1.065701         2.636020
 H        -3.970734        -1.381510         1.121777
 H        -1.513495         0.117336         1.951419
 H        -2.823083         0.872393        -0.321792
 H        -2.360085        -1.687685        -1.026471
 H        -1.479901        -0.616762        -2.061059
 H         0.765864        -2.566926         0.738781
 H        -0.452929         2.111030         0.400097
 H        -0.500553         1.557626        -1.181044
