19
Iteration:  1159
 C        -2.977187        -1.477334         1.690951
 C        -1.734751        -0.501538         1.193450
 C        -1.957079         0.380557        -0.149133
 C        -1.610350        -0.838564        -1.047377
 C        -0.676345        -1.229386         0.161514
 O        -0.109005        -2.464752         0.317799
 C         0.243187         0.002948         0.167347
 O         1.457900         0.007136         0.346359
 C        -0.614303         1.189021        -0.142604
 H        -3.438855        -2.036432         0.975862
 H        -2.694407        -2.286984         2.313046
 H        -3.618398        -0.865989         2.337181
 H        -1.448121         0.110354         2.084886
 H        -2.860126         1.027075        -0.181183
 H        -2.477513        -1.431075        -1.398977
 H        -1.040158        -0.656317        -1.942862
 H         0.822839        -2.267329         0.368318
 H        -0.530926         1.952649         0.629491
 H        -0.509621         1.578384        -1.164309
