19
Iteration:  2469charge 0 multiplicity 1
 C        -3.076357        -1.446358         1.462266
 C        -1.846258        -0.570301         1.265762
 C        -1.952075         0.378995        -0.016699
 C        -1.476462        -0.853853        -0.946290
 C        -0.644702        -1.120938         0.296256
 O        -0.144976        -2.498496         0.497357
 C         0.331125         0.113150         0.183229
 O         1.540817        -0.037858         0.007045
 C        -0.720820         1.175544        -0.100279
 H        -3.751608        -1.131257         2.200616
 H        -3.841118        -1.537241         0.532736
 H        -2.711105        -2.493361         1.711143
 H        -1.429930        -0.166357         2.329414
 H        -2.781681         1.023127        -0.241833
 H        -2.091235        -1.758830        -1.147453
 H        -0.961483        -0.546150        -1.981265
 H         0.800840        -2.395888         0.310436
 H        -0.492038         1.878292         0.691723
 H        -0.581395         1.708071        -1.066690
