19
Iteration:   573charge 0 multiplicity 1
 C        -2.893059        -1.483277         1.601315
 C        -1.848157        -0.511974         1.111643
 C        -1.999578         0.413065        -0.189342
 C        -1.595743        -0.855111        -0.957589
 C        -0.745292        -1.188900         0.198945
 O        -0.130175        -2.430354         0.395402
 C         0.312819         0.027400         0.200885
 O         1.537761        -0.091140         0.142146
 C        -0.674022         1.208323        -0.002230
 H        -3.392222        -2.263773         1.049710
 H        -2.372654        -2.042513         2.368236
 H        -3.679041        -0.880538         2.138399
 H        -1.523320        -0.009305         2.033831
 H        -2.906244         0.947855        -0.408386
 H        -2.315539        -1.550637        -1.120698
 H        -0.920484        -0.710524        -1.808695
 H         0.785658        -2.175760         0.750065
 H        -0.724187         2.015239         0.783819
 H        -0.294152         1.809429        -0.821331
