19
Iteration:  4182
 C        -3.066408        -1.441511         1.322371
 C        -1.836707        -0.556944         1.131162
 C        -1.992551         0.309320        -0.062730
 C        -1.542302        -0.900015        -0.925718
 C        -0.678465        -1.187194         0.291899
 O        -0.050654        -2.422545         0.627827
 C         0.329792         0.066115         0.137816
 O         1.552947        -0.029397         0.076858
 C        -0.679962         1.244903        -0.034237
 H        -3.615049        -1.646735         0.476040
 H        -2.825195        -2.319678         1.995510
 H        -3.767383        -0.819763         1.851477
 H        -1.384399        -0.079094         2.053844
 H        -3.024889         0.782592        -0.261731
 H        -2.323545        -1.619458        -0.940389
 H        -1.175192        -0.829239        -1.950646
 H         0.876125        -2.338540         0.518044
 H        -0.780931         2.107088         0.767691
 H        -0.544171         1.690202        -0.969799
