19
Iteration:   779charge 0 multiplicity 1
 C        -3.082600        -1.347267         1.436875
 C        -1.779599        -0.610183         1.207310
 C        -1.975712         0.362776         0.067063
 C        -1.671989        -0.819508        -0.953257
 C        -0.625928        -1.207619         0.273591
 O        -0.000694        -2.409020         0.463679
 C         0.267316        -0.030021         0.100017
 O         1.503199        -0.016929         0.112627
 C        -0.622439         1.131095        -0.110485
 H        -3.383406        -2.004065         0.588989
 H        -2.798429        -2.127598         2.122821
 H        -3.963427        -0.729909         1.625853
 H        -1.554082        -0.253804         2.248139
 H        -2.956402         0.864069         0.057006
 H        -2.328953        -1.538534        -1.412881
 H        -1.112799        -0.564849        -1.906891
 H         0.930429        -1.980140         0.663338
 H        -0.569032         1.821014         0.720106
 H        -0.541761         1.688779        -1.041771
