19
Iteration:  4031charge 0 multiplicity 1
 C        -2.939569        -1.311697         1.613419
 C        -1.679311        -0.467366         1.133896
 C        -2.034450         0.392238        -0.197748
 C        -1.680444        -0.970572        -0.957705
 C        -0.724061        -1.237557         0.089964
 O         0.047727        -2.479011         0.329124
 C         0.253730        -0.029956         0.136045
 O         1.411815         0.006577         0.570192
 C        -0.697049         1.162425        -0.260027
 H        -3.430541        -1.772651         0.805114
 H        -2.432832        -2.204787         2.159798
 H        -3.456191        -0.679081         2.312985
 H        -1.166032        -0.000048         1.979478
 H        -3.028753         0.926588        -0.468188
 H        -2.569667        -1.604814        -0.963666
 H        -1.285621        -0.796491        -2.059268
 H         0.927823        -2.189988         0.816542
 H        -0.748389         1.812451         0.592622
 H        -0.284124         1.727636        -1.117569
