19
Iteration:  2750
 C        -3.195559        -1.469214         1.407243
 C        -1.887494        -0.588372         1.160739
 C        -1.928968         0.342562        -0.129268
 C        -1.461439        -0.855588        -0.894511
 C        -0.636693        -1.168498         0.405378
 O        -0.028672        -2.407171         0.682280
 C         0.315557        -0.034232         0.187587
 O         1.512214         0.037716        -0.005796
 C        -0.713252         1.191131        -0.211582
 H        -4.113535        -1.012614         0.927794
 H        -3.089168        -2.491938         1.071285
 H        -3.298521        -1.401421         2.513069
 H        -1.649000        -0.210416         2.240483
 H        -2.753571         0.936061        -0.329394
 H        -2.117666        -1.615860        -1.241815
 H        -0.791737        -0.692999        -1.733521
 H         0.995031        -2.208209         0.452111
 H        -0.668275         2.115224         0.446517
 H        -0.289094         1.593035        -1.133662
