19
Iteration:  1136charge 0 multiplicity 1
 C        -2.960588        -1.339269         1.447110
 C        -1.748765        -0.536447         1.221534
 C        -2.066089         0.359761        -0.076493
 C        -1.635678        -0.914685        -0.848510
 C        -0.626446        -1.178700         0.218221
 O        -0.112645        -2.478599         0.269333
 C         0.319581         0.019524         0.175984
 O         1.543210         0.021479         0.276652
 C        -0.688994         1.155121        -0.104086
 H        -3.416826        -1.841306         0.649977
 H        -2.863651        -2.200915         2.026441
 H        -3.611881        -0.693076         2.047531
 H        -1.424359        -0.209757         2.247177
 H        -2.914855         1.064247        -0.232736
 H        -2.300393        -1.785589        -0.781906
 H        -1.316085        -0.921684        -1.907522
 H         0.883624        -2.284397         0.365943
 H        -0.576147         1.919245         0.678295
 H        -0.595975         1.597814        -1.097876
