19
Iteration:  2707
 C        -2.946779        -1.447200         1.412127
 C        -1.755522        -0.503379         1.074962
 C        -1.984608         0.350577        -0.196606
 C        -1.551291        -0.986031        -0.935995
 C        -0.640497        -1.156199         0.283181
 O        -0.121106        -2.383833         0.661443
 C         0.276428         0.057795         0.140903
 O         1.484101        -0.004600         0.122357
 C        -0.688208         1.145661        -0.079261
 H        -3.826049        -1.352360         0.698639
 H        -2.802797        -2.545420         1.609653
 H        -3.397292        -1.080127         2.378298
 H        -1.608087         0.202911         2.038316
 H        -2.911211         0.742471        -0.443670
 H        -2.442099        -1.564950        -1.113449
 H        -0.950453        -0.854494        -1.914194
 H         0.827764        -2.483430         0.800072
 H        -0.780787         1.722722         0.915357
 H        -0.561250         2.007189        -0.763311
