19
Iteration:  3779charge 0 multiplicity 1
 C        -2.801279        -1.447755         1.654195
 C        -1.795060        -0.473056         1.037087
 C        -1.962293         0.338636        -0.279318
 C        -1.643008        -0.876135        -1.031934
 C        -0.696458        -1.200431         0.115891
 O        -0.154191        -2.453762         0.482769
 C         0.236789         0.056500         0.159047
 O         1.430056        -0.000561         0.474835
 C        -0.619267         1.168621        -0.220951
 H        -3.447986        -2.140352         1.230473
 H        -2.198438        -2.228564         2.189776
 H        -3.295423        -0.961933         2.496085
 H        -1.530767         0.229276         1.857463
 H        -2.850512         1.015773        -0.412087
 H        -2.517900        -1.604674        -0.976596
 H        -1.047365        -0.867361        -1.853393
 H         0.783004        -2.470918         0.624724
 H        -0.832726         1.979363         0.580024
 H        -0.249052         1.636761        -1.128354
