19
Iteration:  4779
 C        -2.854072        -1.491513         1.539935
 C        -1.784340        -0.481295         1.126693
 C        -1.971022         0.393730        -0.144160
 C        -1.656933        -0.860353        -1.032536
 C        -0.670728        -1.200908         0.205534
 O        -0.127949        -2.460019         0.551450
 C         0.262408         0.043930         0.186128
 O         1.478896        -0.000163         0.341519
 C        -0.662491         1.173905        -0.286075
 H        -3.373251        -2.052479         0.757346
 H        -2.419142        -2.332664         2.130403
 H        -3.585297        -0.997937         2.203325
 H        -1.399912        -0.006077         2.132350
 H        -2.901151         1.039931        -0.273814
 H        -2.620404        -1.473000        -1.046564
 H        -1.214749        -0.764757        -2.107772
 H         0.829512        -2.416584         0.581829
 H        -0.640589         1.845560         0.538173
 H        -0.379499         1.705944        -1.205645
