19
Iteration:  1853charge 0 multiplicity 1
 C        -2.879573        -1.609615         1.473673
 C        -1.854434        -0.545780         1.202777
 C        -1.981791         0.525564        -0.063872
 C        -1.705317        -0.833783        -0.883814
 C        -0.622228        -1.119539         0.296048
 O        -0.147847        -2.447677         0.400028
 C         0.286190        -0.016944         0.138225
 O         1.473733        -0.025966         0.282226
 C        -0.543211         1.206313        -0.256379
 H        -3.545013        -2.031156         0.633764
 H        -2.585513        -2.498651         1.923362
 H        -3.590621        -1.095908         2.119467
 H        -1.605812         0.065253         2.091160
 H        -2.783655         1.242084        -0.358668
 H        -2.414498        -1.639850        -0.835380
 H        -1.264935        -0.843212        -1.870931
 H         0.811060        -2.460857         0.307573
 H        -0.439262         2.032411         0.534556
 H        -0.327132         1.649268        -1.198078
