19
Iteration:    32
 C        -2.844581        -1.612436         1.480027
 C        -1.812707        -0.489575         1.275316
 C        -1.894278         0.444003         0.000797
 C        -1.687609        -0.808287        -0.818148
 C        -0.609585        -1.176720         0.197328
 O        -0.314008        -2.434884         0.288228
 C         0.307704         0.002363         0.158402
 O         1.520895         0.024994         0.291361
 C        -0.574730         1.198644        -0.241577
 H        -2.458284        -2.624085         1.692521
 H        -3.480831        -1.507367         2.363221
 H        -3.543532        -1.780061         0.625604
 H        -1.503901         0.110553         2.165662
 H        -2.879187         0.945264        -0.227521
 H        -2.624755        -1.389174        -0.900801
 H        -1.245612        -0.574370        -1.848913
 H         0.641555        -2.598695         0.398905
 H        -0.487475         2.208296         0.316254
 H        -0.473893         1.191698        -1.342106
