19
Iteration:   595
 C        -2.931627        -1.318394         1.702493
 C        -1.790123        -0.558370         1.147620
 C        -1.952428         0.329846        -0.109124
 C        -1.570316        -0.793759        -1.150386
 C        -0.639440        -1.266921         0.154753
 O        -0.012974        -2.441804         0.410317
 C         0.202771        -0.053893         0.102666
 O         1.387648        -0.057992         0.266757
 C        -0.686248         1.183363        -0.044466
 H        -3.602120        -1.849871         1.009532
 H        -2.738600        -2.179707         2.297747
 H        -3.670140        -0.651561         2.251834
 H        -1.301610        -0.068284         2.000968
 H        -2.825916         0.920745        -0.291744
 H        -2.345947        -1.429094        -1.162419
 H        -1.137415        -0.497094        -2.123398
 H         0.983913        -2.281034         0.506314
 H        -0.603235         1.874775         0.881826
 H        -0.479818         2.000667        -0.713053
