19
Iteration:  2656
 C        -2.892143        -1.540051         1.643986
 C        -1.825098        -0.536303         1.137408
 C        -1.976995         0.353702        -0.164996
 C        -1.681950        -0.752572        -1.118125
 C        -0.676289        -1.119194         0.293437
 O        -0.074737        -2.318947         0.476586
 C         0.264391        -0.032311         0.151299
 O         1.420591        -0.089668         0.437964
 C        -0.586914         1.165538        -0.336400
 H        -3.113856        -2.321588         1.018162
 H        -2.450458        -2.075145         2.574003
 H        -3.869321        -1.056473         1.912184
 H        -1.439502        -0.131163         1.990965
 H        -2.952610         0.856206        -0.282562
 H        -2.076615        -1.774178        -1.159568
 H        -1.207162        -0.588498        -2.110389
 H         0.947473        -2.275425         0.645705
 H        -0.528752         2.151296         0.041153
 H        -0.482170         1.405353        -1.394749
