19
Iteration:  1571charge 0 multiplicity 1
 C        -3.014467        -1.487197         1.657359
 C        -1.807162        -0.550984         1.121013
 C        -1.940943         0.368187        -0.094904
 C        -1.454711        -0.832457        -0.991718
 C        -0.686593        -1.184885         0.226710
 O        -0.156985        -2.393899         0.378906
 C         0.281278         0.026294         0.175091
 O         1.484780        -0.086465         0.158032
 C        -0.711694         1.210689        -0.049818
 H        -3.545549        -1.868404         0.706943
 H        -2.509834        -2.279887         2.087349
 H        -3.736008        -0.946502         2.158672
 H        -1.250653        -0.034119         1.961772
 H        -2.808203         0.934061        -0.440971
 H        -2.141119        -1.637436        -1.265748
 H        -0.874954        -0.579475        -1.887248
 H         0.684798        -2.137675         0.949243
 H        -0.650065         2.010589         0.758565
 H        -0.539802         1.738966        -1.008511
