19
Iteration:  4749
 C        -2.944138        -1.449495         1.553987
 C        -1.785804        -0.541595         1.175773
 C        -2.017992         0.267826        -0.157653
 C        -1.525223        -0.867461        -1.038309
 C        -0.699915        -1.181101         0.337849
 O        -0.153755        -2.379286         0.513701
 C         0.299537         0.074554         0.145551
 O         1.517911        -0.021185         0.208897
 C        -0.666229         1.150418        -0.196509
 H        -3.366880        -1.905412         0.724277
 H        -2.855842        -2.282698         2.307621
 H        -3.660327        -0.697529         1.970313
 H        -1.524664         0.030421         2.019670
 H        -2.950486         0.856670        -0.363463
 H        -2.389867        -1.567019        -1.217673
 H        -0.907507        -0.618605        -1.775172
 H         0.881077        -2.279584         0.440597
 H        -0.661372         1.862524         0.703538
 H        -0.447495         1.683089        -1.078851
