19
Iteration:   483charge 0 multiplicity 1
 C        -3.111156        -1.436926         1.549175
 C        -1.874492        -0.486631         1.177842
 C        -1.951838         0.330067        -0.127563
 C        -1.537405        -0.852299        -0.991042
 C        -0.659319        -1.160399         0.274091
 O        -0.012567        -2.392179         0.420995
 C         0.301730         0.024270         0.105941
 O         1.503701        -0.124669         0.117580
 C        -0.671502         1.176105         0.031748
 H        -3.222081        -2.182052         0.778950
 H        -2.616698        -2.090212         2.304826
 H        -3.968103        -0.838632         1.887602
 H        -1.524925         0.129044         1.999284
 H        -2.782747         1.062636        -0.351449
 H        -2.461446        -1.484740        -0.914036
 H        -1.166673        -0.891028        -1.954466
 H         1.014770        -2.116775         0.430409
 H        -0.692445         1.793862         0.945695
 H        -0.521738         1.866407        -0.852207
