19
Iteration:  1111
 C        -3.082424        -1.360682         1.487881
 C        -1.798132        -0.611901         1.204023
 C        -1.936481         0.302830         0.007066
 C        -1.635596        -0.813731        -0.958691
 C        -0.662637        -1.221115         0.238942
 O        -0.016669        -2.457812         0.391717
 C         0.304440         0.026685         0.085011
 O         1.504026         0.002994         0.186195
 C        -0.645695         1.228084        -0.097670
 H        -3.471457        -1.951988         0.607933
 H        -2.940724        -2.302591         2.007576
 H        -3.796680        -0.800284         2.052614
 H        -1.406338        -0.326976         2.193421
 H        -2.818768         0.909355        -0.072627
 H        -2.432702        -1.549708        -1.027068
 H        -1.358085        -0.612070        -2.054305
 H         0.854824        -2.213238         0.870608
 H        -0.527678         1.918465         0.755725
 H        -0.550044         1.717426        -1.044602
