19
Iteration:  1884charge 0 multiplicity 1
 C        -2.884514        -1.507355         1.457757
 C        -1.827128        -0.555123         1.181838
 C        -1.999200         0.427277         0.004646
 C        -1.625581        -0.806990        -1.056349
 C        -0.689521        -1.153254         0.244521
 O        -0.085046        -2.354325         0.542762
 C         0.279091        -0.005453         0.116926
 O         1.505278        -0.173606         0.158184
 C        -0.678436         1.193927        -0.077204
 H        -3.389952        -1.800168         0.483474
 H        -2.582755        -2.413270         1.915019
 H        -3.552616        -0.921319         2.145632
 H        -1.567041        -0.021364         2.188695
 H        -2.893968         1.069966        -0.272433
 H        -2.439618        -1.500359        -1.230227
 H        -0.969091        -0.537644        -1.919415
 H         0.939753        -2.227199         0.680383
 H        -0.630365         2.152504         0.577692
 H        -0.668696         1.637080        -1.107316
