19
Iteration:  3523charge 0 multiplicity 1
 C        -2.954878        -1.337570         1.583829
 C        -1.788574        -0.456020         1.082011
 C        -1.941003         0.338747        -0.186779
 C        -1.597445        -0.900595        -0.998433
 C        -0.591807        -1.234709         0.244118
 O        -0.038671        -2.459888         0.472151
 C         0.232340         0.014948         0.159343
 O         1.413293         0.001227         0.379586
 C        -0.705874         1.096892        -0.202513
 H        -3.281938        -2.158191         0.802225
 H        -2.592233        -1.966917         2.400230
 H        -3.800327        -0.692244         1.882330
 H        -1.199615         0.053016         1.912530
 H        -2.910956         0.807936        -0.439595
 H        -2.502497        -1.492510        -1.125472
 H        -1.217648        -0.611005        -2.034269
 H         0.891774        -2.354138         0.297478
 H        -0.814835         1.821743         0.708572
 H        -0.532125         1.781039        -1.065357
