19
Iteration:  3524
 C        -2.959751        -1.341194         1.587818
 C        -1.791972        -0.454284         1.089259
 C        -1.941484         0.338734        -0.194382
 C        -1.592811        -0.906583        -0.999495
 C        -0.590649        -1.239074         0.244029
 O        -0.039038        -2.458252         0.473309
 C         0.232170         0.016516         0.160027
 O         1.415958         0.002105         0.372517
 C        -0.704298         1.099987        -0.197212
 H        -3.303726        -2.133632         0.825972
 H        -2.601972        -1.985221         2.365559
 H        -3.800084        -0.676882         1.867540
 H        -1.206805         0.028485         1.895998
 H        -2.908054         0.818853        -0.436493
 H        -2.477560        -1.475596        -1.116673
 H        -1.221730        -0.605687        -2.004803
 H         0.896107        -2.355545         0.278971
 H        -0.845584         1.844549         0.692507
 H        -0.508934         1.779967        -1.037002
