19
Iteration:  4698
 C        -3.105473        -1.390836         1.492269
 C        -1.814332        -0.508040         1.148642
 C        -1.964127         0.347784        -0.137217
 C        -1.566262        -0.893359        -0.966307
 C        -0.643811        -1.201852         0.338002
 O         0.033254        -2.342596         0.557809
 C         0.257360        -0.004913         0.104879
 O         1.483565        -0.087185         0.094193
 C        -0.696610         1.162027        -0.066880
 H        -3.280525        -2.056786         0.562623
 H        -2.994784        -2.048870         2.353129
 H        -4.101582        -0.897125         1.572281
 H        -1.317816        -0.152096         2.139655
 H        -2.858826         0.897406        -0.272065
 H        -2.284311        -1.755535        -1.124647
 H        -0.961807        -0.617395        -2.011715
 H         0.940235        -2.109874         0.534706
 H        -0.736144         1.750543         0.883696
 H        -0.405425         1.849722        -0.890838
