19
Iteration:  3403
 C        -3.042948        -1.399414         1.668887
 C        -1.798682        -0.486821         1.110702
 C        -1.964459         0.311690        -0.158356
 C        -1.569488        -0.925831        -1.071778
 C        -0.623861        -1.212591         0.274505
 O        -0.021548        -2.444981         0.385195
 C         0.258481        -0.017324         0.138473
 O         1.458317         0.052255         0.328349
 C        -0.680363         1.155803        -0.143284
 H        -3.611077        -1.908282         0.765131
 H        -2.896619        -1.963092         2.564073
 H        -3.686178        -0.546312         1.991009
 H        -1.307982         0.081340         1.867656
 H        -2.912181         0.698706        -0.549315
 H        -2.387259        -1.575109        -1.294442
 H        -1.108130        -0.751340        -2.022355
 H         0.712069        -2.251328         0.984085
 H        -0.475824         1.889247         0.706425
 H        -0.390946         1.614388        -1.119360
