19
Iteration:  4436
 C        -3.002708        -1.580126         1.426068
 C        -1.868612        -0.522478         1.177323
 C        -2.004216         0.358320        -0.091292
 C        -1.547762        -0.818872        -0.955636
 C        -0.636700        -1.123210         0.347916
 O        -0.162671        -2.352883         0.670951
 C         0.323060         0.040317         0.050838
 O         1.523040        -0.078779         0.028987
 C        -0.586427         1.211511        -0.077346
 H        -3.452019        -1.840326         0.314819
 H        -2.581789        -2.542117         1.891314
 H        -3.961895        -1.260161         1.881054
 H        -1.544639        -0.102610         2.118139
 H        -2.875677         0.898752        -0.403747
 H        -2.204641        -1.700463        -1.145702
 H        -1.066664        -0.563347        -1.841229
 H         0.801240        -2.442428         1.009470
 H        -0.580089         2.034456         0.673204
 H        -0.552505         1.756858        -1.088159
