19
Iteration:  2990charge 0 multiplicity 1
 C        -2.935074        -1.477686         1.399524
 C        -1.861382        -0.529369         1.169115
 C        -1.959603         0.343273        -0.183833
 C        -1.375642        -0.894010        -0.907468
 C        -0.602726        -1.109762         0.360075
 O        -0.228497        -2.473443         0.671775
 C         0.242652         0.068486         0.132669
 O         1.456453         0.018616         0.018010
 C        -0.710672         1.191246        -0.102906
 H        -3.888936        -0.909513         1.318255
 H        -2.910706        -2.350454         0.764023
 H        -2.783190        -1.827448         2.441658
 H        -1.526141        -0.090701         2.080927
 H        -2.898243         0.799242        -0.394165
 H        -2.109225        -1.736412        -1.070318
 H        -0.796342        -0.786847        -1.817177
 H         0.642147        -2.371571         1.154287
 H        -0.719279         2.221201         0.346110
 H        -0.367797         1.340469        -1.125833
