19
Iteration:   159charge 0 multiplicity 1
 C        -2.956962        -1.445213         1.437514
 C        -1.582147        -0.572314         1.214013
 C        -1.948744         0.420017        -0.019887
 C        -1.756144        -0.851951        -0.937306
 C        -0.647948        -1.217855         0.166865
 O        -0.164481        -2.505195         0.385649
 C         0.256850         0.044728         0.093731
 O         1.474022         0.028115         0.316388
 C        -0.646538         1.208269        -0.144936
 H        -3.199483        -2.205037         0.686370
 H        -3.016446        -1.975595         2.409207
 H        -3.664626        -0.555845         1.433198
 H        -1.042028        -0.145228         2.070292
 H        -2.929726         0.942254         0.253515
 H        -2.475149        -1.719394        -0.786789
 H        -1.248883        -0.902978        -1.922061
 H         0.770404        -2.518318         0.407092
 H        -0.524321         2.000295         0.669960
 H        -0.378884         1.798480        -1.036119
