19
Iteration:  4057charge 0 multiplicity 1
 C        -3.029974        -1.375390         1.599807
 C        -1.742268        -0.603757         1.146149
 C        -1.951491         0.345377        -0.047855
 C        -1.565506        -0.912292        -1.043681
 C        -0.669243        -1.152947         0.166273
 O        -0.109606        -2.417047         0.391228
 C         0.290983         0.049314         0.163755
 O         1.472843         0.064481         0.449969
 C        -0.684120         1.072680        -0.249211
 H        -3.531722        -2.081978         0.818303
 H        -2.710080        -2.034655         2.410347
 H        -3.622502        -0.511705         2.031068
 H        -1.391972        -0.042212         2.039725
 H        -2.764578         0.998805        -0.094838
 H        -2.215717        -1.778928        -1.064759
 H        -1.185838        -0.651604        -1.992377
 H         0.796925        -2.491613        -0.025019
 H        -0.574948         2.086479         0.193788
 H        -0.527073         1.188263        -1.449724
