19
Iteration:   726charge 0 multiplicity 1
 C        -2.813768        -1.581910         1.634228
 C        -1.807416        -0.437229         1.130250
 C        -2.018473         0.450586        -0.173081
 C        -1.560396        -0.834973        -1.081250
 C        -0.703819        -1.147393         0.217589
 O        -0.219738        -2.437217         0.462121
 C         0.286424        -0.041477         0.121553
 O         1.505278        -0.030004         0.240645
 C        -0.648249         1.159230         0.000115
 H        -3.250731        -2.089542         0.785173
 H        -2.407778        -2.154205         2.406630
 H        -3.616321        -0.957834         2.059000
 H        -1.454595         0.043002         2.022379
 H        -2.919054         0.962748        -0.566171
 H        -2.384755        -1.538743        -1.081695
 H        -1.118834        -0.670715        -2.082066
 H         0.680722        -2.180244         0.243712
 H        -0.614850         1.797442         0.855287
 H        -0.431850         1.574780        -0.938780
