19
Iteration:  2959charge 0 multiplicity 1
 C        -2.941687        -1.424587         1.562934
 C        -1.886489        -0.534097         1.074561
 C        -1.996643         0.295116        -0.266169
 C        -1.635351        -0.918299        -1.104562
 C        -0.655804        -1.163366         0.253421
 O        -0.101786        -2.403358         0.679159
 C         0.329638         0.080053         0.014720
 O         1.545280         0.020669         0.294095
 C        -0.644341         1.127140        -0.139917
 H        -3.696235        -0.920136         2.176218
 H        -3.420908        -2.172549         0.771869
 H        -2.465782        -2.093109         2.397747
 H        -1.606205         0.001872         2.004104
 H        -2.907664         0.868686        -0.374663
 H        -2.377179        -1.749015        -1.242012
 H        -1.132284        -0.703867        -2.031022
 H         0.627239        -2.135719         1.286562
 H        -0.677628         1.774009         0.827766
 H        -0.402747         1.824411        -0.991793
