19
Iteration:  3626
 C        -3.009354        -1.611328         1.418042
 C        -1.979145        -0.542274         1.166426
 C        -1.946005         0.393179        -0.094558
 C        -1.550707        -0.805190        -1.039694
 C        -0.682524        -1.104749         0.340591
 O        -0.114532        -2.335554         0.751033
 C         0.362556         0.049178         0.100065
 O         1.589391        -0.121668         0.048855
 C        -0.650596         1.205650        -0.146375
 H        -3.566401        -1.947334         0.584997
 H        -2.359909        -2.352311         1.996872
 H        -3.830970        -1.379796         2.153031
 H        -1.791818         0.088357         2.103161
 H        -2.903210         0.956891        -0.223401
 H        -2.233598        -1.678917        -1.215334
 H        -1.002172        -0.645063        -1.895480
 H         0.682635        -2.416253         0.180315
 H        -0.730256         1.938391         0.724066
 H        -0.522493         1.853906        -0.996311
