19
Iteration:  2776
 C        -3.016806        -1.435654         1.339494
 C        -1.819838        -0.452325         1.146182
 C        -1.949299         0.244717        -0.133942
 C        -1.617850        -0.976810        -0.964102
 C        -0.607264        -1.095893         0.315732
 O        -0.000875        -2.309459         0.700713
 C         0.260902         0.029758         0.132097
 O         1.458300        -0.130453         0.118477
 C        -0.710361         1.208396        -0.115684
 H        -3.908921        -0.910851         1.110886
 H        -2.928840        -2.402328         0.648649
 H        -3.104797        -1.806995         2.407338
 H        -1.709791         0.183927         2.108200
 H        -2.857208         0.912685        -0.300737
 H        -2.472629        -1.726882        -1.128392
 H        -0.948479        -0.906860        -1.932886
 H         1.026473        -2.215519         0.666241
 H        -0.620451         1.864185         0.771712
 H        -0.400327         1.893862        -0.950922
