19
Iteration:   395
 C        -2.763017        -1.534262         1.501979
 C        -1.710950        -0.450477         1.147252
 C        -1.996374         0.447461        -0.108384
 C        -1.708704        -0.819333        -0.976691
 C        -0.659150        -1.234418         0.133387
 O        -0.203844        -2.493662         0.441114
 C         0.237477         0.008799         0.214078
 O         1.410992         0.026566         0.416375
 C        -0.542350         1.202728        -0.210109
 H        -3.285504        -1.991293         0.631263
 H        -2.458182        -2.381949         2.183641
 H        -3.590792        -1.101839         2.057150
 H        -1.366626         0.061130         2.055481
 H        -3.007236         0.955026        -0.315070
 H        -2.581433        -1.537395        -0.929003
 H        -1.370121        -0.757923        -1.929474
 H         0.675848        -2.692020         0.137742
 H        -0.454333         2.077675         0.407295
 H        -0.296582         1.513858        -1.289227
