19
Iteration:  3760
 C        -2.784444        -1.364420         1.668198
 C        -1.738494        -0.449954         1.091476
 C        -2.031331         0.371116        -0.262595
 C        -1.707585        -0.944782        -1.086656
 C        -0.695780        -1.223902         0.123580
 O        -0.045537        -2.407921         0.403543
 C         0.257978        -0.039139         0.123995
 O         1.414960        -0.025131         0.576295
 C        -0.636583         1.151927        -0.203327
 H        -3.307307        -1.980199         0.846009
 H        -2.324737        -2.277121         2.295070
 H        -3.584399        -0.718671         2.144749
 H        -1.221544         0.085056         2.025527
 H        -2.974947         0.939301        -0.417562
 H        -2.532977        -1.640433        -0.978758
 H        -1.573390        -0.793286        -2.194828
 H         0.616944        -2.149322         1.023658
 H        -0.473293         1.929745         0.545542
 H        -0.633325         1.635594        -1.280300
