19
Iteration:   653
 C        -2.929721        -1.423737         1.556198
 C        -1.814819        -0.430281         1.219145
 C        -2.008253         0.444179        -0.077715
 C        -1.737785        -0.925986        -0.898764
 C        -0.654166        -1.264214         0.301819
 O        -0.021726        -2.426017         0.171924
 C         0.294853        -0.038476         0.056082
 O         1.456083        -0.011657         0.435963
 C        -0.590479         1.170955        -0.209580
 H        -3.421292        -1.621409         0.544036
 H        -2.535965        -2.301846         2.111908
 H        -3.645211        -0.929027         2.257223
 H        -1.546478         0.078495         2.198691
 H        -2.922413         1.085597        -0.195257
 H        -2.570555        -1.733799        -0.863638
 H        -1.224811        -1.035231        -1.859071
 H         0.819631        -2.265732         0.550560
 H        -0.266241         1.961419         0.573807
 H        -0.485521         1.489071        -1.273892
