19
Iteration:  1299charge 0 multiplicity 1
 C        -2.966845        -1.331656         1.551431
 C        -1.815383        -0.512815         1.182349
 C        -1.990680         0.328988        -0.177968
 C        -1.563211        -0.914158        -1.013129
 C        -0.654468        -1.188438         0.206858
 O        -0.047626        -2.438185         0.365207
 C         0.269213        -0.005974         0.194978
 O         1.486338        -0.031010         0.191759
 C        -0.707848         1.159753         0.074973
 H        -3.409185        -1.925753         0.669668
 H        -2.718910        -2.046417         2.306957
 H        -3.604089        -0.574762         2.010583
 H        -1.424879         0.066497         1.945016
 H        -2.891146         0.936846        -0.373319
 H        -2.391569        -1.617898        -1.135670
 H        -1.265943        -0.810698        -2.096695
 H         0.879491        -2.306882         0.272456
 H        -0.797264         1.613440         1.059201
 H        -0.377339         1.854644        -0.667157
