19
Iteration:  4513
 C        -2.925576        -1.374501         1.647891
 C        -1.820892        -0.485922         1.157580
 C        -2.005290         0.365818        -0.096620
 C        -1.583989        -0.907451        -1.073263
 C        -0.646126        -1.211607         0.168614
 O        -0.034991        -2.452163         0.377190
 C         0.268750         0.027081         0.195682
 O         1.458637        -0.046860         0.372795
 C        -0.690232         1.158018        -0.180657
 H        -3.405801        -2.082748         0.809719
 H        -2.585878        -1.781666         2.625243
 H        -3.801267        -0.725276         1.866987
 H        -1.611412         0.146260         1.988997
 H        -2.854716         0.954554        -0.354359
 H        -2.354109        -1.674501        -1.059313
 H        -1.255126        -0.695554        -2.040928
 H         0.890878        -2.379123         0.496131
 H        -0.537262         2.126873         0.307370
 H        -0.555216         1.347867        -1.326318
