19
Iteration:  1779
 C        -2.934943        -1.342961         1.749211
 C        -1.788582        -0.469343         1.197160
 C        -2.023675         0.385774        -0.211403
 C        -1.668106        -0.937745        -1.092874
 C        -0.672264        -1.186504         0.110236
 O        -0.019844        -2.444995         0.169243
 C         0.289097         0.024096         0.252826
 O         1.478099        -0.058127         0.449499
 C        -0.640425         1.126602        -0.078074
 H        -3.561145        -2.108161         1.094231
 H        -2.616440        -1.892366         2.691058
 H        -3.773590        -0.760044         2.113790
 H        -1.274156         0.089053         1.929835
 H        -3.003958         0.857066        -0.370439
 H        -2.505137        -1.628508        -1.130120
 H        -1.364533        -0.743260        -2.127170
 H         0.900751        -2.345958         0.317591
 H        -0.656917         1.947169         0.631220
 H        -0.340636         1.547353        -1.038405
