19
Iteration:  2526
 C        -2.853743        -1.517176         1.451433
 C        -1.810360        -0.495895         1.109201
 C        -1.990639         0.421708        -0.182518
 C        -1.712128        -0.872130        -0.988707
 C        -0.701993        -1.202585         0.234077
 O        -0.107548        -2.324320         0.589258
 C         0.298959         0.017678         0.063554
 O         1.521528        -0.178363         0.217911
 C        -0.668041         1.249972        -0.000200
 H        -2.523576        -1.863124         2.404960
 H        -3.882737        -1.013837         1.437005
 H        -2.840611        -2.386635         0.755526
 H        -1.347618        -0.058212         2.106740
 H        -2.949806         0.940551        -0.428042
 H        -2.486832        -1.682624        -0.957959
 H        -1.474681        -0.691348        -2.052796
 H         0.863558        -1.931611         0.627034
 H        -0.455658         1.686379         0.949485
 H        -0.406322         1.936113        -0.858594
