19
Iteration:  1753
 C        -2.943221        -1.461455         1.583895
 C        -1.794174        -0.519408         1.217135
 C        -1.947548         0.462131         0.014281
 C        -1.700916        -0.891819        -0.920851
 C        -0.705157        -1.179877         0.173101
 O         0.000579        -2.387954         0.198272
 C         0.284731        -0.002762         0.140308
 O         1.449758        -0.113945         0.498236
 C        -0.614558         1.182283        -0.366093
 H        -3.356919        -2.245772         0.965028
 H        -2.760931        -1.799567         2.563691
 H        -3.878977        -0.842473         1.780365
 H        -1.367558        -0.094856         2.143568
 H        -2.909987         1.003221        -0.027225
 H        -2.515719        -1.604679        -1.060927
 H        -1.286598        -0.642916        -1.889634
 H         0.921849        -2.210496         0.558693
 H        -0.358237         2.091351         0.234037
 H        -0.772120         1.418106        -1.373871
