19
Iteration:  4547
 C        -2.901026        -1.311406         1.571457
 C        -1.750976        -0.503894         1.173019
 C        -2.004634         0.390900        -0.100806
 C        -1.742719        -1.011853        -0.993579
 C        -0.620094        -1.218970         0.195261
 O         0.003420        -2.444423         0.310837
 C         0.292378         0.011806         0.016422
 O         1.386865        -0.039637         0.553722
 C        -0.607807         1.197263        -0.260304
 H        -3.412488        -2.086757         0.797609
 H        -2.698171        -2.021417         2.381863
 H        -3.525559        -0.523315         2.008507
 H        -1.431645        -0.007552         2.048791
 H        -2.920347         0.968267        -0.185643
 H        -2.554482        -1.663849        -0.907326
 H        -1.440361        -1.044920        -2.013674
 H         0.847131        -2.114517         0.758031
 H        -0.563269         1.942428         0.498707
 H        -0.657161         1.760393        -1.297193
