19
Iteration:  2320charge 0 multiplicity 1
 C        -2.827094        -1.423294         1.658870
 C        -1.668054        -0.511906         1.170349
 C        -1.941704         0.408873        -0.037709
 C        -1.643887        -0.748989        -1.035704
 C        -0.686044        -1.201660         0.127514
 O        -0.209506        -2.559781         0.259560
 C         0.260945         0.021322         0.165764
 O         1.469695        -0.025703         0.401744
 C        -0.687715         1.182531        -0.179596
 H        -3.210788        -2.340594         1.071861
 H        -2.538699        -1.917472         2.524291
 H        -3.785701        -0.926477         1.929326
 H        -1.258340        -0.025228         2.048887
 H        -3.020542         0.645610         0.014037
 H        -2.526227        -1.401627        -1.126480
 H        -1.152879        -0.509104        -1.972470
 H         0.703859        -2.432379         0.290760
 H        -0.648879         2.010457         0.536971
 H        -0.537119         1.653683        -1.194885
