19
Iteration:   545
 C        -2.861128        -1.626550         1.446311
 C        -1.779390        -0.493585         1.219463
 C        -2.038871         0.455366        -0.095764
 C        -1.621951        -0.766237        -0.929693
 C        -0.670526        -1.099752         0.314848
 O        -0.269313        -2.475425         0.548068
 C         0.330118         0.052451         0.057371
 O         1.546246        -0.055042         0.133309
 C        -0.621431         1.187254        -0.126556
 H        -3.113630        -2.391495         0.634138
 H        -2.580156        -2.232489         2.353051
 H        -3.907928        -1.337477         1.665123
 H        -1.586987         0.095588         2.157010
 H        -2.983677         1.096956        -0.100787
 H        -2.292827        -1.775824        -1.119579
 H        -0.966519        -0.591624        -1.830137
 H         0.715692        -2.465618         0.393224
 H        -0.364497         2.022695         0.552295
 H        -0.330908         1.676486        -1.097198
