19
Iteration:  1507
 C        -2.795412        -1.513389         1.602457
 C        -1.685699        -0.544322         1.173341
 C        -1.939105         0.420992        -0.079472
 C        -1.650545        -0.827525        -0.961126
 C        -0.685519        -1.121354         0.164938
 O        -0.251084        -2.473209         0.352452
 C         0.276777         0.057879         0.091259
 O         1.406938        -0.037156         0.511100
 C        -0.631743         1.201629        -0.321960
 H        -3.017899        -2.361325         0.800552
 H        -2.680268        -2.141979         2.536115
 H        -3.808456        -1.092282         1.872308
 H        -1.178213        -0.086497         2.101803
 H        -2.926456         0.868626        -0.130616
 H        -2.259822        -1.712291        -1.228530
 H        -1.258670        -0.384061        -1.936548
 H         0.789560        -2.503384         0.368064
 H        -0.521051         2.105310         0.294656
 H        -0.438664         1.503493        -1.382049
