19
Iteration:  2876charge 0 multiplicity 1
 C        -2.915950        -1.431536         1.655875
 C        -1.671863        -0.483232         1.053781
 C        -1.940471         0.355435        -0.317044
 C        -1.745075        -1.037604        -0.972566
 C        -0.718043        -1.290123         0.182660
 O        -0.058210        -2.465095         0.407510
 C         0.318892         0.006729         0.088917
 O         1.429102         0.224105         0.598301
 C        -0.605707         1.152931        -0.276136
 H        -3.308429        -0.762293         2.429683
 H        -3.687359        -1.291231         0.863834
 H        -3.033730        -2.469269         1.766590
 H        -1.323017         0.106948         1.932506
 H        -2.980396         0.868160        -0.327133
 H        -2.614185        -1.683824        -0.796855
 H        -1.312905        -1.124483        -2.032606
 H         0.416716        -2.533617         1.224376
 H        -0.634942         2.034422         0.277030
 H        -0.245425         1.556954        -1.273703
