19
Iteration:  1892
 C        -2.952376        -1.507384         1.555845
 C        -1.813107        -0.578931         1.061178
 C        -2.032872         0.423384        -0.059179
 C        -1.562934        -0.740396        -1.053095
 C        -0.653268        -1.171957         0.207103
 O        -0.068202        -2.369269         0.582081
 C         0.297838        -0.006491         0.128642
 O         1.493191        -0.175408         0.125200
 C        -0.690303         1.198015        -0.038038
 H        -3.522621        -1.649619         0.692939
 H        -2.622073        -2.440343         2.138435
 H        -3.665701        -0.875794         2.160498
 H        -1.507802        -0.148925         2.019029
 H        -2.973220         0.965192         0.037481
 H        -2.264088        -1.574449        -1.302691
 H        -1.218391        -0.353134        -2.053619
 H         0.907500        -2.137762         0.818459
 H        -0.683602         1.945625         0.736909
 H        -0.497532         1.696665        -1.056192
