19
Iteration:  1773charge 0 multiplicity 1
 C        -2.969394        -1.363386         1.735963
 C        -1.800864        -0.517612         1.149747
 C        -2.053666         0.359807        -0.176142
 C        -1.672145        -0.858437        -1.020286
 C        -0.648510        -1.155580         0.150038
 O        -0.023873        -2.393409         0.150186
 C         0.305906         0.002490         0.208024
 O         1.490466        -0.070799         0.469926
 C        -0.626907         1.075516        -0.121776
 H        -3.320564        -2.062342         1.065228
 H        -2.621121        -1.836291         2.669904
 H        -3.851209        -0.770254         2.106508
 H        -1.363977         0.120778         2.030194
 H        -2.981057         0.895071        -0.399404
 H        -2.528137        -1.580695        -0.932422
 H        -1.442835        -0.752412        -2.116601
 H         0.977641        -2.237385         0.381787
 H        -0.673088         1.989963         0.493415
 H        -0.205806         1.258861        -1.190700
