19
Iteration:  2788
 C        -2.948150        -1.445540         1.384714
 C        -1.835897        -0.492326         1.111058
 C        -1.976753         0.375972        -0.234565
 C        -1.631430        -0.961446        -0.961068
 C        -0.697972        -1.187144         0.300670
 O        -0.001811        -2.271585         0.704357
 C         0.289376        -0.006711         0.083953
 O         1.504552        -0.139947         0.190819
 C        -0.691299         1.190036        -0.100980
 H        -3.960889        -1.036314         1.429257
 H        -2.972743        -2.323037         0.650588
 H        -2.741733        -1.899584         2.362625
 H        -1.543543         0.105566         2.015741
 H        -2.988912         0.903931        -0.378039
 H        -2.436079        -1.756951        -0.990474
 H        -1.245578        -0.723504        -2.027731
 H         0.959140        -1.871992         0.882696
 H        -0.966447         1.743687         0.783959
 H        -0.370851         1.880962        -0.914172
