19
Iteration:  3002
 C        -2.999244        -1.526625         1.373616
 C        -1.871339        -0.487482         1.134686
 C        -1.948838         0.295055        -0.124026
 C        -1.448240        -0.972601        -0.886929
 C        -0.654837        -1.122430         0.502759
 O        -0.207642        -2.436344         0.630706
 C         0.333453         0.118114         0.253856
 O         1.483378         0.029557        -0.055624
 C        -0.618568         1.245678        -0.207669
 H        -3.993327        -1.143048         1.150258
 H        -2.901897        -2.455473         0.731332
 H        -3.050748        -1.871002         2.458280
 H        -1.789236         0.151333         1.992013
 H        -2.832976         0.807401        -0.460585
 H        -2.217330        -1.780186        -0.896961
 H        -0.909007        -0.876968        -1.817469
 H         0.706358        -2.551347         0.737901
 H        -0.676515         2.018409         0.651824
 H        -0.389890         1.732355        -1.162470
