19
Iteration:   745charge 0 multiplicity 1
 C        -2.959121        -1.493939         1.512595
 C        -1.842968        -0.576087         1.146795
 C        -1.952255         0.385525        -0.110821
 C        -1.647127        -0.858842        -0.923637
 C        -0.638030        -1.136876         0.274153
 O        -0.156635        -2.439920         0.394968
 C         0.316780         0.054260         0.221772
 O         1.514475        -0.069279         0.155683
 C        -0.627192         1.261502        -0.120876
 H        -3.161937        -2.088073         0.662739
 H        -2.425719        -2.069966         2.312066
 H        -3.820852        -1.118869         2.053037
 H        -1.629222         0.023418         2.102276
 H        -2.881944         0.933661        -0.172526
 H        -2.430829        -1.555974        -0.913034
 H        -1.014313        -0.687221        -1.836496
 H         0.768148        -2.506555         0.580011
 H        -0.702127         1.971838         0.669764
 H        -0.363376         1.732041        -1.134089
