19
Iteration:   964charge 0 multiplicity 1
 C        -2.947146        -1.321533         1.723233
 C        -1.841147        -0.496700         1.189538
 C        -1.981631         0.356257        -0.175442
 C        -1.652578        -0.896317        -1.051316
 C        -0.630925        -1.220682         0.095507
 O         0.073195        -2.455799         0.270679
 C         0.230095         0.042765         0.209826
 O         1.427295        -0.089679         0.343624
 C        -0.656059         1.180045        -0.066173
 H        -3.587527        -1.782393         0.991820
 H        -2.639396        -2.039725         2.527066
 H        -3.820397        -0.803859         2.072411
 H        -1.378178         0.075031         2.006752
 H        -2.942426         0.947179        -0.352782
 H        -2.588443        -1.477280        -1.120264
 H        -1.329420        -0.708022        -2.075092
 H         1.081691        -2.466948         0.426105
 H        -0.779459         1.764590         0.820476
 H        -0.400097         1.602796        -1.091678
