19
Iteration:  3885charge 0 multiplicity 1
 C        -3.174708        -1.449791         1.479752
 C        -1.845589        -0.564334         1.144771
 C        -1.998300         0.381290        -0.126178
 C        -1.438830        -0.867879        -0.966521
 C        -0.654951        -1.186089         0.384724
 O         0.098807        -2.325427         0.587260
 C         0.280066         0.052892         0.227021
 O         1.436262        -0.217361         0.003230
 C        -0.707495         1.251183        -0.088169
 H        -3.453225        -2.185724         0.657368
 H        -3.077814        -1.865743         2.420027
 H        -4.009970        -0.742526         1.360841
 H        -1.623082        -0.168531         2.151862
 H        -2.857180         0.900711        -0.544796
 H        -2.125764        -1.720641        -1.377996
 H        -0.897493        -0.440072        -1.843874
 H         1.052676        -2.113116         0.340130
 H        -0.845423         1.930485         0.764866
 H        -0.375328         1.790333        -0.897442
