19
Iteration:  4262
 C        -2.799203        -1.447296         1.657781
 C        -1.733589        -0.427502         1.116057
 C        -2.003610         0.360458        -0.188752
 C        -1.656563        -0.971767        -1.077842
 C        -0.755431        -1.177472         0.109985
 O        -0.099216        -2.399786         0.397433
 C         0.268442         0.016561         0.119365
 O         1.393116        -0.032551         0.596556
 C        -0.634806         1.166678        -0.247627
 H        -3.146812        -2.203158         0.849809
 H        -2.323540        -2.046566         2.404964
 H        -3.619238        -1.038060         2.201086
 H        -1.390035         0.116267         2.081778
 H        -2.789187         1.032690        -0.502825
 H        -2.653795        -1.556608        -1.204635
 H        -1.028383        -0.777925        -2.055780
 H         0.872760        -2.277960         0.512832
 H        -0.625808         2.062143         0.386499
 H        -0.362068         1.484263        -1.297936
