19
Iteration:  4215
 C        -3.031177        -1.355701         1.574367
 C        -1.850718        -0.483531         1.124911
 C        -1.936673         0.254894        -0.151749
 C        -1.553988        -0.904624        -1.047008
 C        -0.706493        -1.202957         0.203015
 O        -0.031340        -2.457189         0.460141
 C         0.293512        -0.024603         0.156798
 O         1.491015         0.084487         0.275471
 C        -0.649651         1.139652        -0.114653
 H        -3.518609        -1.494041         0.688674
 H        -2.799382        -2.358034         2.074107
 H        -3.745467        -0.953863         2.287260
 H        -1.503525        -0.100202         2.067950
 H        -3.002792         0.704124        -0.246171
 H        -2.348804        -1.589883        -1.142179
 H        -1.064144        -0.672538        -1.967932
 H         0.797267        -2.119177         0.959442
 H        -0.605210         1.996764         0.747335
 H        -0.471832         1.585612        -1.050431
