19
Iteration:  1653
 C        -2.949722        -1.455396         1.528884
 C        -1.864962        -0.479363         1.177299
 C        -1.980808         0.342101        -0.126835
 C        -1.446477        -0.762420        -1.033003
 C        -0.664251        -1.183452         0.283617
 O        -0.108686        -2.449146         0.491455
 C         0.255713         0.006858         0.237278
 O         1.468887        -0.118511        -0.014283
 C        -0.736479         1.208627         0.015536
 H        -3.542742        -1.832889         0.698748
 H        -2.607556        -2.374682         2.146722
 H        -3.551876        -0.971106         2.412590
 H        -1.478588         0.073375         2.098081
 H        -2.879495         0.838275        -0.504702
 H        -2.235709        -1.458781        -1.371591
 H        -0.817457        -0.435514        -1.896035
 H         0.859546        -2.320712         0.806020
 H        -0.783785         1.822078         0.897466
 H        -0.220229         1.728697        -0.783767
