19
Iteration:  1509charge 0 multiplicity 1
 C        -2.794385        -1.520071         1.601558
 C        -1.664684        -0.533351         1.157412
 C        -1.943557         0.410398        -0.088141
 C        -1.664909        -0.840263        -0.987299
 C        -0.686235        -1.126790         0.180582
 O        -0.267069        -2.472337         0.354304
 C         0.283943         0.057424         0.094171
 O         1.416047        -0.024464         0.503309
 C        -0.629703         1.212799        -0.294023
 H        -2.958517        -2.304016         0.877216
 H        -2.701780        -2.134250         2.563901
 H        -3.823320        -1.121534         1.953278
 H        -1.225574        -0.101642         2.062325
 H        -2.939129         0.862095        -0.189084
 H        -2.314684        -1.696025        -1.259312
 H        -1.168269        -0.397136        -1.916773
 H         0.752919        -2.505718         0.383428
 H        -0.531325         2.048443         0.344508
 H        -0.420736         1.494109        -1.367775
