19
Iteration:  3601
 C        -2.992745        -1.559595         1.261955
 C        -1.791778        -0.567744         1.155009
 C        -1.915062         0.410382        -0.090900
 C        -1.619296        -0.863106        -0.899748
 C        -0.645403        -1.131837         0.329845
 O        -0.108735        -2.306313         0.759075
 C         0.259159         0.006233         0.122616
 O         1.465395        -0.094201         0.003152
 C        -0.629350         1.195922        -0.076579
 H        -3.747616        -1.770477         0.354850
 H        -2.640542        -2.486672         1.716546
 H        -3.649635        -1.075728         2.050012
 H        -1.586909        -0.011920         2.194433
 H        -2.851140         0.861027        -0.414569
 H        -2.169043        -1.748520        -0.963817
 H        -0.978225        -0.765356        -1.837998
 H         0.897808        -2.137772         0.554333
 H        -0.657655         2.067872         0.709256
 H        -0.444436         1.707905        -1.040907
