19
Iteration:  4654
 C        -3.006910        -1.546698         1.497949
 C        -1.804186        -0.499872         1.195155
 C        -1.983644         0.424074        -0.166802
 C        -1.602701        -0.837820        -0.954230
 C        -0.654562        -1.142326         0.279038
 O        -0.071979        -2.436714         0.607908
 C         0.272324        -0.019221         0.062059
 O         1.476851        -0.023046         0.192197
 C        -0.617523         1.172666        -0.167573
 H        -3.160527        -2.077690         0.496906
 H        -2.791139        -2.363871         2.200711
 H        -3.923977        -1.014230         1.862664
 H        -1.634917         0.274660         2.049939
 H        -2.862514         1.013905        -0.334520
 H        -2.474597        -1.550520        -0.973684
 H        -1.046083        -0.600988        -1.992616
 H         0.942977        -2.422831         0.554302
 H        -0.491215         1.906224         0.646663
 H        -0.403245         1.694630        -1.115004
