19
Iteration:  1278charge 0 multiplicity 1
 C        -3.028344        -1.337106         1.519037
 C        -1.743565        -0.580569         1.170449
 C        -1.933518         0.366681        -0.065550
 C        -1.601893        -0.891296        -0.914094
 C        -0.624994        -1.259790         0.218964
 O        -0.112328        -2.591686         0.303924
 C         0.282215         0.034967         0.146924
 O         1.492123         0.085379         0.283062
 C        -0.721591         1.280776        -0.089391
 H        -3.303527        -1.956109         0.618882
 H        -2.809799        -2.073998         2.266504
 H        -3.751962        -0.604737         1.980857
 H        -1.222601        -0.127749         1.988307
 H        -2.914568         0.878339        -0.121738
 H        -2.380949        -1.706595        -1.093212
 H        -1.084003        -0.682012        -1.912604
 H         0.832645        -2.535501         0.544408
 H        -0.544441         1.970023         0.719457
 H        -0.571960         1.687448        -1.081300
