19
Iteration:  2956charge 0 multiplicity 1
 C        -2.958856        -1.447538         1.572357
 C        -1.849922        -0.519392         1.052984
 C        -1.999293         0.328894        -0.278289
 C        -1.646362        -0.941845        -1.088617
 C        -0.643968        -1.183892         0.231044
 O        -0.094422        -2.376937         0.665200
 C         0.324114         0.069863         0.022312
 O         1.539039         0.019353         0.319015
 C        -0.649480         1.128429        -0.120200
 H        -3.726234        -0.950966         2.260181
 H        -3.488964        -2.079470         0.930002
 H        -2.463710        -2.084843         2.308320
 H        -1.643191         0.046610         1.945896
 H        -2.875170         0.910984        -0.524830
 H        -2.396999        -1.764864        -1.125820
 H        -1.174852        -0.759985        -2.067968
 H         0.664349        -2.170063         1.180892
 H        -0.613093         1.767751         0.792450
 H        -0.441701         1.707949        -1.007839
