19
Iteration:  1920
 C        -3.015719        -1.427494         1.687631
 C        -1.917412        -0.601331         1.086704
 C        -1.903069         0.402313        -0.166709
 C        -1.492389        -0.874216        -1.100407
 C        -0.723655        -1.230771         0.224321
 O        -0.048225        -2.408120         0.532181
 C         0.261254         0.004685         0.105702
 O         1.491018        -0.023937         0.067415
 C        -0.641576         1.188043         0.110179
 H        -3.676915        -1.806256         0.800908
 H        -2.804365        -2.204105         2.406545
 H        -3.724398        -0.740034         2.081610
 H        -1.435958        -0.033923         2.023286
 H        -2.795852         1.049118        -0.254625
 H        -2.341981        -1.436143        -1.478861
 H        -0.946555        -0.628722        -1.988216
 H         0.880457        -2.259915         0.086825
 H        -0.743033         1.650476         1.147137
 H        -0.437136         1.896439        -0.651470
