19
Iteration:  4976
 C        -2.892901        -1.477966         1.458230
 C        -1.867635        -0.465289         1.117268
 C        -2.001198         0.348658        -0.105918
 C        -1.566519        -0.884473        -0.964195
 C        -0.667497        -1.190543         0.267626
 O        -0.092416        -2.366741         0.660676
 C         0.284434         0.065615         0.088179
 O         1.477116        -0.114651         0.088137
 C        -0.657581         1.206669        -0.060259
 H        -3.313230        -1.792126         0.511036
 H        -2.571100        -2.425154         2.038259
 H        -3.811947        -1.104366         2.099099
 H        -1.626246         0.055757         2.010915
 H        -3.029111         0.675662        -0.577094
 H        -2.334447        -1.626033        -1.184744
 H        -0.875219        -0.611550        -1.947951
 H         0.869742        -2.303059         0.629908
 H        -0.562151         1.757647         0.950241
 H        -0.608598         1.957818        -0.979507
