19
Iteration:  4810
 C        -2.820498        -1.480716         1.606993
 C        -1.832915        -0.430899         1.112275
 C        -2.001829         0.390683        -0.130821
 C        -1.645965        -0.944191        -1.012437
 C        -0.653133        -1.112778         0.094653
 O        -0.110204        -2.388855         0.457340
 C         0.277105         0.004407         0.108600
 O         1.447492        -0.061792         0.463727
 C        -0.656199         1.131613        -0.245891
 H        -3.485153        -1.940397         0.829863
 H        -2.250548        -2.195176         2.183282
 H        -3.536748        -1.019763         2.277192
 H        -1.327240         0.066095         1.989682
 H        -2.923274         0.954807        -0.334540
 H        -2.409434        -1.571184        -0.978254
 H        -1.395053        -1.036018        -2.138756
 H         0.753700        -2.159319         0.841622
 H        -0.507162         1.817952         0.547651
 H        -0.451391         1.710483        -1.213581
