19
Iteration:  1295charge 0 multiplicity 1
 C        -2.959437        -1.324775         1.543477
 C        -1.779981        -0.507941         1.186779
 C        -2.006614         0.330289        -0.149468
 C        -1.537464        -0.904867        -1.007749
 C        -0.668740        -1.199333         0.206675
 O        -0.054577        -2.487660         0.353277
 C         0.261466         0.005576         0.185183
 O         1.493446        -0.011430         0.205727
 C        -0.702322         1.175158         0.051058
 H        -3.486876        -1.846333         0.741404
 H        -2.735113        -2.121457         2.301702
 H        -3.707049        -0.594659         1.862945
 H        -1.471630         0.168606         2.081133
 H        -2.964661         0.829450        -0.370317
 H        -2.428668        -1.512813        -1.165176
 H        -1.370683        -0.952981        -2.070774
 H         0.955979        -2.344264         0.283123
 H        -0.897414         1.678620         1.044018
 H        -0.327715         1.901764        -0.707228
