19
Iteration:  1743
 C        -2.977060        -1.467765         1.547479
 C        -1.643083        -0.519460         1.289310
 C        -1.962235         0.458771         0.022847
 C        -1.708331        -0.862317        -0.963986
 C        -0.682713        -1.189972         0.215034
 O        -0.017945        -2.452804         0.273090
 C         0.248870         0.029228         0.025438
 O         1.365849        -0.106191         0.482848
 C        -0.605895         1.226491        -0.337556
 H        -2.905331        -2.229526         0.713990
 H        -2.807087        -2.047668         2.415825
 H        -3.931944        -0.856633         1.627328
 H        -1.261471        -0.213646         2.227327
 H        -2.915249         1.033790        -0.071709
 H        -2.639532        -1.397897        -0.958165
 H        -1.318264        -0.752326        -1.952254
 H         0.867564        -2.160269         0.602449
 H        -0.441035         2.196755         0.200309
 H        -0.384056         1.382263        -1.339862
