19
Iteration:  3367
 C        -3.104600        -1.450824         1.449763
 C        -1.761874        -0.548489         1.235945
 C        -1.945313         0.321352        -0.154711
 C        -1.595684        -0.975908        -0.968212
 C        -0.646835        -1.187770         0.331029
 O        -0.015189        -2.355385         0.550797
 C         0.307479         0.080436         0.161080
 O         1.503778        -0.072296         0.160392
 C        -0.675820         1.274670        -0.136838
 H        -3.747115        -1.487549         0.558930
 H        -3.002856        -2.472622         1.655305
 H        -3.768964        -0.990475         2.145292
 H        -1.698152         0.176463         2.064592
 H        -2.906236         0.721034        -0.383236
 H        -2.489819        -1.642927        -1.097171
 H        -0.971879        -0.810197        -1.828136
 H         0.867342        -2.431030         0.242838
 H        -0.484105         2.037642         0.594215
 H        -0.669096         1.694646        -1.200918
