19
Iteration:    47charge 0 multiplicity 1
 C        -2.842981        -1.559309         1.520208
 C        -1.693935        -0.581305         1.172110
 C        -1.984880         0.451165        -0.027844
 C        -1.714510        -0.836145        -0.988390
 C        -0.708608        -1.103208         0.201144
 O        -0.316384        -2.479000         0.337267
 C         0.329624         0.058429         0.122116
 O         1.538972         0.024703         0.345782
 C        -0.587872         1.190008        -0.181567
 H        -2.394634        -2.574664         1.633706
 H        -3.197670        -1.373685         2.553573
 H        -3.648168        -1.574916         0.829500
 H        -1.154701        -0.310120         2.077862
 H        -2.801437         1.114002        -0.032020
 H        -2.370606        -1.610193        -0.707557
 H        -1.400730        -0.765217        -2.037633
 H         0.519257        -2.399704         0.783665
 H        -0.370739         1.936925         0.527102
 H        -0.444560         1.509948        -1.234860
