19
Iteration:  1095
 C        -3.047001        -1.485933         1.559949
 C        -1.778502        -0.662495         1.190624
 C        -1.963928         0.456258        -0.081328
 C        -1.573633        -0.795776        -1.042908
 C        -0.764768        -1.222228         0.225214
 O        -0.016779        -2.359430         0.468782
 C         0.274656        -0.021723         0.160100
 O         1.480130        -0.037259         0.122751
 C        -0.648911         1.147329        -0.042708
 H        -3.531586        -1.830994         0.645464
 H        -2.871720        -2.333289         2.375648
 H        -3.642679        -0.710761         2.164959
 H        -1.327518        -0.175100         2.058270
 H        -2.924155         0.981202        -0.283305
 H        -2.425787        -1.422935        -1.386896
 H        -0.879406        -0.549165        -1.780742
 H         0.893808        -2.116930         0.507316
 H        -0.485426         1.894148         0.744389
 H        -0.329194         1.735052        -1.000420
