19
Iteration:  3120
 C        -2.851993        -1.414546         1.564595
 C        -1.785204        -0.478266         1.101301
 C        -1.975102         0.389303        -0.145734
 C        -1.642861        -0.970846        -0.978914
 C        -0.618517        -1.177449         0.167821
 O        -0.202195        -2.545801         0.433131
 C         0.321593         0.034551         0.163592
 O         1.465356         0.145980         0.449657
 C        -0.675373         1.149693        -0.273992
 H        -3.546735        -1.799121         0.796477
 H        -2.371282        -2.282735         1.902000
 H        -3.410683        -1.028309         2.433133
 H        -1.480873         0.023866         2.073708
 H        -2.845149         1.003191        -0.309932
 H        -2.361790        -1.865005        -0.876879
 H        -1.220716        -0.873402        -1.990644
 H         0.701463        -2.600712         0.741669
 H        -0.644942         2.059934         0.337885
 H        -0.437789         1.488965        -1.273701
