19
Iteration:   295
 C        -3.057771        -1.355480         1.483439
 C        -1.770386        -0.640439         1.198269
 C        -1.947443         0.308695         0.028815
 C        -1.598676        -0.869423        -0.954679
 C        -0.635206        -1.242294         0.256586
 O        -0.090746        -2.435334         0.362866
 C         0.334169         0.093441         0.164454
 O         1.577048         0.004346         0.263916
 C        -0.732817         1.201286        -0.153383
 H        -3.684578        -1.785355         0.689232
 H        -3.175905        -2.150243         2.225740
 H        -3.581082        -0.523870         1.879247
 H        -1.532856        -0.235821         2.186175
 H        -2.933480         0.786637        -0.028839
 H        -2.493066        -1.442719        -1.125143
 H        -1.127107        -0.662039        -1.845925
 H         0.611305        -2.452655        -0.279009
 H        -0.545127         2.112389         0.391397
 H        -0.545691         1.411855        -1.257852
