19
Iteration:  3378
 C        -3.098651        -1.376023         1.485834
 C        -1.870187        -0.480429         1.172671
 C        -1.937524         0.311201        -0.092451
 C        -1.510544        -0.928406        -0.974832
 C        -0.674089        -1.196628         0.324387
 O         0.000895        -2.428295         0.478805
 C         0.294654         0.031331         0.218440
 O         1.529463        -0.025576         0.185727
 C        -0.740079         1.174332        -0.172535
 H        -3.652041        -1.537444         0.573484
 H        -2.756958        -2.256361         1.931119
 H        -3.692640        -0.915581         2.240588
 H        -1.308005        -0.132610         2.042146
 H        -2.851523         0.795178        -0.352201
 H        -2.341927        -1.679770        -1.056051
 H        -1.131618        -0.815784        -1.982733
 H         0.873858        -2.080774         0.271650
 H        -0.896824         2.001426         0.495311
 H        -0.420506         1.571357        -1.188857
