19
Iteration:  4985charge 0 multiplicity 1
 C        -2.956950        -1.502817         1.451000
 C        -1.817770        -0.514737         1.129448
 C        -2.020484         0.360209        -0.156729
 C        -1.530046        -0.834638        -0.911812
 C        -0.651392        -1.147210         0.285065
 O        -0.101489        -2.405588         0.637013
 C         0.270335        -0.014842         0.148660
 O         1.501345        -0.082734         0.069868
 C        -0.712088         1.228614        -0.088730
 H        -3.452888        -1.805078         0.479542
 H        -2.610694        -2.443359         1.951073
 H        -3.538336        -0.831981         2.037309
 H        -1.410193         0.087299         1.921843
 H        -3.039350         0.809081        -0.344120
 H        -2.150393        -1.608919        -0.910904
 H        -0.965313        -0.666161        -1.930457
 H         0.817885        -2.143017         0.663042
 H        -0.729179         1.873545         0.790311
 H        -0.434595         1.757937        -1.108823
