19
Iteration:  2067charge 0 multiplicity 1
 C        -2.910649        -1.404716         1.769340
 C        -1.808805        -0.595203         1.110128
 C        -1.947750         0.391390        -0.105966
 C        -1.582506        -0.778177        -1.117556
 C        -0.630941        -1.248636         0.115855
 O        -0.200031        -2.554209         0.284267
 C         0.288235         0.006734         0.113676
 O         1.489163         0.102370         0.345719
 C        -0.686485         1.192980        -0.057574
 H        -3.597506        -1.982818         1.170474
 H        -2.295293        -2.214712         2.266924
 H        -3.470050        -0.821228         2.552992
 H        -1.264397        -0.129144         2.057782
 H        -2.889443         0.952067        -0.123415
 H        -2.497405        -1.374888        -1.180950
 H        -1.174866        -0.549187        -2.140526
 H         0.592070        -2.577928         0.931367
 H        -0.526807         1.903845         0.686461
 H        -0.294035         1.365869        -1.106166
