19
Iteration:  4311charge 0 multiplicity 1
 C        -2.806408        -1.450425         1.638890
 C        -1.718033        -0.508851         1.130809
 C        -1.968808         0.401672        -0.167915
 C        -1.622482        -0.947967        -1.024657
 C        -0.693381        -1.178357         0.138558
 O        -0.198990        -2.383031         0.380664
 C         0.260306        -0.005432         0.152363
 O         1.415515         0.017957         0.556759
 C        -0.663398         1.168807        -0.341998
 H        -2.844066        -2.198096         0.855745
 H        -2.652477        -2.158408         2.576476
 H        -3.876073        -0.972990         1.773474
 H        -1.300461         0.083670         2.004952
 H        -2.844553         1.125918        -0.140691
 H        -2.174257        -1.858476        -0.925133
 H        -1.180985        -0.871286        -2.032859
 H         0.700584        -2.477139         0.585308
 H        -0.479416         1.969942         0.437939
 H        -0.408273         1.563461        -1.303422
