19
Iteration:   911charge 0 multiplicity 1
 C        -2.857889        -1.373745         1.624564
 C        -1.709825        -0.519910         1.161793
 C        -1.993941         0.423151        -0.129786
 C        -1.635345        -0.876086        -1.029451
 C        -0.697129        -1.216379         0.093532
 O        -0.091262        -2.473740         0.362091
 C         0.240171        -0.018285         0.175204
 O         1.451009        -0.020020         0.419311
 C        -0.685975         1.196281        -0.152173
 H        -3.464810        -1.944964         0.826625
 H        -2.374201        -2.158315         2.298860
 H        -3.695586        -1.071678         2.283332
 H        -1.205094        -0.147318         2.118787
 H        -3.049975         0.825055        -0.253125
 H        -2.607604        -1.505392        -0.894754
 H        -1.235518        -0.622542        -2.043131
 H         0.810268        -2.391997         0.195161
 H        -0.518127         2.124377         0.429364
 H        -0.470729         1.526471        -1.246082
