19
Iteration:  3422charge 0 multiplicity 1
 C        -2.943382        -1.317913         1.662232
 C        -1.744815        -0.630142         1.113009
 C        -1.983285         0.361453        -0.235773
 C        -1.618478        -0.941256        -1.006233
 C        -0.653897        -1.261339         0.100697
 O        -0.131156        -2.464249         0.400222
 C         0.310633         0.093388         0.123617
 O         1.479221         0.024307         0.465472
 C        -0.692714         1.208328        -0.187873
 H        -3.029333        -2.236601         1.086690
 H        -2.581006        -1.574369         2.643196
 H        -3.862456        -0.892350         1.920064
 H        -1.319029         0.058996         1.917920
 H        -2.901471         0.890561        -0.314602
 H        -2.366949        -1.790631        -1.222452
 H        -1.070618        -0.907117        -1.960052
 H         0.615559        -2.178400         0.912762
 H        -0.688356         1.874266         0.655247
 H        -0.589059         1.756553        -1.188251
