19
Iteration:   525
 C        -2.874961        -1.541672         1.406778
 C        -1.743964        -0.571220         1.163223
 C        -1.843459         0.437861         0.027418
 C        -1.633218        -0.704318        -1.009005
 C        -0.687683        -1.233763         0.233921
 O        -0.226643        -2.420511         0.664192
 C         0.279092         0.007198         0.144678
 O         1.481486        -0.026290         0.106427
 C        -0.684489         1.204056        -0.145861
 H        -2.848974        -2.228052         0.540457
 H        -2.660864        -2.236490         2.252459
 H        -3.839872        -1.105611         1.366635
 H        -1.390095        -0.232232         2.127166
 H        -2.926398         0.716869        -0.054482
 H        -2.591233        -1.381752        -0.987146
 H        -1.285171        -0.521447        -2.001429
 H         0.651422        -2.574418         0.440002
 H        -0.396935         1.996282         0.446191
 H        -0.660391         1.656355        -1.166785
