19
Iteration:  2082
 C        -2.905561        -1.419861         1.662514
 C        -1.685077        -0.571283         1.180261
 C        -2.006461         0.381742        -0.051608
 C        -1.639524        -0.858224        -0.988602
 C        -0.701503        -1.194969         0.130239
 O        -0.164657        -2.478264         0.233944
 C         0.304637        -0.045875         0.126513
 O         1.486885         0.115925         0.339209
 C        -0.612053         1.114126        -0.140136
 H        -3.671534        -1.427575         0.787306
 H        -2.745587        -2.359867         2.079298
 H        -3.413764        -0.771239         2.410479
 H        -1.218735        -0.117279         2.027604
 H        -2.936738         0.970464        -0.272583
 H        -2.341666        -1.701237        -1.130274
 H        -1.193692        -0.610060        -1.978131
 H         0.296758        -2.535791         1.114849
 H        -0.530330         1.759324         0.803883
 H        -0.585284         1.835751        -0.913022
