19
Iteration:  2515
 C        -2.879606        -1.556135         1.476363
 C        -1.819615        -0.471871         1.088597
 C        -1.914863         0.380247        -0.114178
 C        -1.704071        -0.890901        -1.022452
 C        -0.709144        -1.108038         0.230330
 O        -0.095856        -2.329404         0.604330
 C         0.295636        -0.038882         0.050726
 O         1.494990        -0.143402         0.159764
 C        -0.632339         1.237670         0.013266
 H        -2.940009        -1.812221         2.501047
 H        -3.950426        -1.188918         1.277976
 H        -2.772686        -2.508657         0.897146
 H        -1.549590         0.207381         2.014860
 H        -2.888563         0.909289        -0.153997
 H        -2.711060        -1.326736        -1.165072
 H        -1.125670        -0.782117        -1.957223
 H         0.861601        -2.230913         0.702758
 H        -0.719282         1.806008         0.919440
 H        -0.354075         1.977939        -0.796572
