19
Iteration:  4647charge 0 multiplicity 1
 C        -2.923060        -1.531682         1.491631
 C        -1.859062        -0.449155         1.210698
 C        -1.975071         0.403700        -0.144832
 C        -1.603791        -0.853197        -0.969383
 C        -0.638536        -1.191182         0.200227
 O        -0.120428        -2.416002         0.604970
 C         0.281737         0.002870         0.060812
 O         1.478129        -0.005386         0.211076
 C        -0.620142         1.158133        -0.118495
 H        -3.461469        -1.931923         0.558205
 H        -2.642043        -2.244599         2.242462
 H        -3.871889        -1.107289         1.757335
 H        -1.577920         0.042565         2.129911
 H        -2.911749         0.887255        -0.480532
 H        -2.324673        -1.576610        -1.051380
 H        -1.228019        -0.874134        -1.928423
 H         0.906908        -2.301713         0.606461
 H        -0.330660         1.856033         0.627162
 H        -0.361302         1.635461        -1.140868
