19
Iteration:  4501charge 0 multiplicity 1
 C        -2.982482        -1.410805         1.681047
 C        -1.872372        -0.538744         1.069840
 C        -2.045000         0.354566        -0.186236
 C        -1.592495        -0.862289        -0.992879
 C        -0.653315        -1.157620         0.209805
 O        -0.086587        -2.471451         0.454663
 C         0.325361         0.004768         0.152359
 O         1.549884        -0.031037         0.337489
 C        -0.680428         1.230581        -0.194287
 H        -3.317838        -2.339151         1.080939
 H        -2.592719        -1.997856         2.560416
 H        -3.806550        -0.775652         2.028167
 H        -1.347912        -0.041322         1.872815
 H        -2.998894         0.814397        -0.365584
 H        -2.281699        -1.697395        -1.228970
 H        -1.112510        -0.588909        -1.864003
 H         0.836054        -2.299488         0.140100
 H        -0.522162         2.024455         0.577902
 H        -0.394740         1.608465        -1.209304
