19
Iteration:  4636
 C        -2.882240        -1.443612         1.474632
 C        -1.896364        -0.454999         1.116246
 C        -1.967626         0.358971        -0.094954
 C        -1.613497        -0.963063        -0.996192
 C        -0.666807        -1.187604         0.168102
 O        -0.187131        -2.377747         0.562912
 C         0.298270        -0.025965         0.128004
 O         1.529483         0.009418         0.243966
 C        -0.644247         1.168343        -0.105910
 H        -3.166949        -2.177652         0.654857
 H        -2.328702        -2.137733         2.095265
 H        -3.563052        -0.981358         2.155356
 H        -1.370809        -0.116632         1.965834
 H        -2.865608         0.938330        -0.378616
 H        -2.432374        -1.580548        -0.961248
 H        -1.201258        -0.768894        -1.913254
 H         0.802272        -2.169232         0.789299
 H        -0.580432         1.904017         0.670555
 H        -0.440134         1.674187        -1.126838
