19
Iteration:  4093charge 0 multiplicity 1
 C        -2.938268        -1.503821         1.476263
 C        -1.835027        -0.444379         1.112046
 C        -1.951970         0.407913        -0.091501
 C        -1.549089        -0.897557        -1.011599
 C        -0.612960        -1.171270         0.266901
 O        -0.187069        -2.512235         0.559118
 C         0.292065         0.026081         0.079829
 O         1.503107         0.039284         0.215114
 C        -0.672225         1.167005        -0.082056
 H        -3.158746        -2.243453         0.729848
 H        -2.664223        -1.966296         2.418684
 H        -3.962018        -1.112446         1.659201
 H        -1.488797        -0.010995         2.092514
 H        -2.724246         1.172758        -0.315432
 H        -2.413043        -1.594981        -1.050488
 H        -1.078362        -0.842914        -1.954773
 H         0.813245        -2.398650         0.401560
 H        -0.781680         1.920524         0.782728
 H        -0.523122         1.749902        -1.008879
