19
Iteration:  3152charge 0 multiplicity 1
 C        -2.760196        -1.361096         1.714843
 C        -1.673001        -0.535582         1.177423
 C        -1.919262         0.332505        -0.140536
 C        -1.612189        -0.912915        -1.150453
 C        -0.638740        -1.199792         0.003586
 O        -0.172600        -2.461851         0.433306
 C         0.235074         0.010591         0.079352
 O         1.325944         0.019854         0.573656
 C        -0.714858         1.194102        -0.269434
 H        -3.085246        -2.109928         0.929167
 H        -2.406869        -1.907364         2.528090
 H        -3.682677        -0.856309         1.988753
 H        -1.247957         0.079877         2.045306
 H        -2.846264         0.841909        -0.311185
 H        -2.396458        -1.717196        -1.336827
 H        -1.120716        -0.642914        -2.085660
 H         0.446609        -2.313604         1.246175
 H        -0.675414         2.061173         0.373607
 H        -0.579644         1.415642        -1.323552
