19
Iteration:  2986
 C        -2.942036        -1.480139         1.424253
 C        -1.808684        -0.514584         1.158579
 C        -1.967659         0.374117        -0.195883
 C        -1.386653        -0.881401        -0.934925
 C        -0.606329        -1.158960         0.326524
 O        -0.221449        -2.455269         0.685802
 C         0.272878         0.034103         0.127567
 O         1.453223         0.021598         0.045824
 C        -0.752439         1.186657        -0.102582
 H        -3.916580        -0.937683         1.471843
 H        -2.925184        -2.327525         0.771023
 H        -2.869619        -1.886959         2.398454
 H        -1.484430        -0.018359         2.129743
 H        -2.976558         0.780334        -0.439406
 H        -2.056994        -1.689139        -1.162054
 H        -0.770042        -0.714068        -1.864324
 H         0.584126        -2.329220         1.246781
 H        -0.662863         2.103773         0.397039
 H        -0.477493         1.356895        -1.157125
