19
Iteration:   474charge 0 multiplicity 1
 C        -3.061333        -1.429763         1.600812
 C        -1.910604        -0.464303         1.164490
 C        -1.954206         0.383508        -0.159773
 C        -1.536741        -0.952064        -0.976327
 C        -0.612163        -1.177996         0.272286
 O         0.019704        -2.387443         0.337997
 C         0.232093         0.034117         0.176672
 O         1.434009        -0.142435         0.102518
 C        -0.621339         1.222176         0.071964
 H        -3.462635        -1.926394         0.726586
 H        -2.749829        -2.092672         2.450225
 H        -3.921846        -0.745771         1.897367
 H        -1.574649        -0.000335         2.111736
 H        -2.843356         0.920163        -0.505919
 H        -2.216873        -1.721969        -1.136916
 H        -1.015959        -0.757304        -1.918666
 H         0.993729        -2.246847         0.695056
 H        -0.787402         2.055708         0.816309
 H        -0.242196         1.714721        -0.852902
