19
Iteration:  3739charge 0 multiplicity 1
 C        -2.910539        -1.334492         1.651448
 C        -1.736576        -0.490435         1.140176
 C        -1.949340         0.350153        -0.101831
 C        -1.692912        -0.946555        -0.968116
 C        -0.570761        -1.183449         0.124214
 O        -0.044480        -2.388041         0.330520
 C         0.252842         0.005657         0.083730
 O         1.361022        -0.073532         0.606915
 C        -0.701309         1.138671        -0.361928
 H        -3.262442        -2.040853         0.812916
 H        -2.483880        -2.029483         2.480063
 H        -3.747251        -0.611888         1.833054
 H        -1.312297         0.016867         2.091551
 H        -2.933643         0.842416        -0.137331
 H        -2.463197        -1.671943        -1.158608
 H        -1.236960        -0.742777        -2.040067
 H         0.917408        -2.182304         0.519124
 H        -0.648642         1.948268         0.331239
 H        -0.328091         1.493857        -1.396550
