19
Iteration:  2874charge 0 multiplicity 1
 C        -2.895506        -1.404948         1.658536
 C        -1.676558        -0.491903         1.075071
 C        -1.952982         0.364081        -0.321882
 C        -1.728879        -1.043928        -0.980202
 C        -0.722208        -1.291686         0.184990
 O        -0.075522        -2.474184         0.406060
 C         0.329994         0.009271         0.099569
 O         1.436517         0.229494         0.590439
 C        -0.622121         1.134338        -0.283157
 H        -3.231700        -0.804356         2.400059
 H        -3.672327        -1.345732         0.748721
 H        -2.979035        -2.520048         1.716521
 H        -1.411861         0.162469         1.981014
 H        -2.971382         0.849277        -0.375912
 H        -2.645452        -1.655674        -0.794485
 H        -1.306169        -1.179241        -1.996727
 H         0.385779        -2.504417         1.187268
 H        -0.635290         2.043958         0.343857
 H        -0.217804         1.682998        -1.206584
