19
Iteration:  4274charge 0 multiplicity 1
 C        -2.730741        -1.461174         1.637478
 C        -1.760956        -0.446383         1.072972
 C        -2.004311         0.461891        -0.215057
 C        -1.719408        -0.846537        -1.068121
 C        -0.646856        -1.193613         0.102425
 O        -0.082875        -2.452015         0.439030
 C         0.224171        -0.041177         0.141561
 O         1.349353        -0.006820         0.607757
 C        -0.647796         1.091201        -0.279297
 H        -3.079839        -2.265136         0.859256
 H        -2.231306        -1.939597         2.457028
 H        -3.650825        -0.959142         1.935454
 H        -1.111252         0.089459         1.883519
 H        -2.900224         1.018591        -0.166824
 H        -2.478781        -1.738437        -1.057784
 H        -1.353811        -0.773833        -2.213627
 H         0.682607        -2.103812         0.872365
 H        -0.524317         1.863299         0.426445
 H        -0.327019         1.493494        -1.302185
