19
Iteration:  4777
 C        -2.871158        -1.475437         1.539466
 C        -1.785330        -0.475652         1.137975
 C        -1.992250         0.405831        -0.127498
 C        -1.633479        -0.860553        -1.042660
 C        -0.651790        -1.232616         0.196250
 O        -0.134509        -2.460041         0.556629
 C         0.258597         0.043949         0.184304
 O         1.479954        -0.006304         0.332594
 C        -0.678038         1.181084        -0.283220
 H        -3.368045        -2.143702         0.728480
 H        -2.419934        -2.283880         2.097414
 H        -3.561042        -1.024915         2.229341
 H        -1.421335        -0.031055         2.150027
 H        -2.863097         1.046390        -0.271705
 H        -2.483166        -1.441515        -0.925871
 H        -1.140906        -0.716587        -2.142229
 H         0.899989        -2.444817         0.551632
 H        -0.670841         1.857216         0.515759
 H        -0.394909         1.720062        -1.272169
