19
Iteration:    33charge 0 multiplicity 1
 C        -2.845979        -1.613486         1.482970
 C        -1.807097        -0.499604         1.274731
 C        -1.890807         0.439528         0.002217
 C        -1.686617        -0.810157        -0.821945
 C        -0.616080        -1.170357         0.186798
 O        -0.322422        -2.429688         0.291531
 C         0.308843         0.009796         0.157416
 O         1.516619         0.026737         0.293598
 C        -0.572914         1.196069        -0.236050
 H        -2.426079        -2.620242         1.654589
 H        -3.469050        -1.465773         2.360918
 H        -3.540605        -1.758800         0.657333
 H        -1.506597         0.066635         2.174062
 H        -2.837615         0.931420        -0.225216
 H        -2.583308        -1.382921        -0.890506
 H        -1.283337        -0.627632        -1.873652
 H         0.661855        -2.608043         0.429996
 H        -0.489077         2.185415         0.277190
 H        -0.441869         1.225749        -1.338224
