19
Iteration:  2951
 C        -2.976321        -1.465112         1.605481
 C        -1.818517        -0.497367         1.017600
 C        -1.995922         0.365936        -0.279032
 C        -1.640711        -0.974503        -1.055660
 C        -0.632979        -1.197012         0.191339
 O        -0.090464        -2.345428         0.637464
 C         0.330230         0.011971         0.069152
 O         1.512790         0.022061         0.344076
 C        -0.670152         1.143607        -0.116312
 H        -3.666826        -0.952217         2.239513
 H        -3.682512        -2.078788         0.924807
 H        -2.404114        -2.190208         2.224145
 H        -1.565937         0.178357         1.891246
 H        -2.848390         0.973797        -0.692295
 H        -2.430408        -1.712096        -0.966273
 H        -1.238330        -0.890979        -2.086317
 H         0.816624        -2.165886         1.057930
 H        -0.550473         1.812774         0.733689
 H        -0.466490         1.665212        -1.080985
