19
Iteration:  4351charge 0 multiplicity 1
 C        -3.058737        -1.413881         1.615791
 C        -1.857757        -0.516958         1.128502
 C        -2.015941         0.373710        -0.148415
 C        -1.553463        -0.931625        -1.047729
 C        -0.597820        -1.193192         0.211716
 O        -0.069094        -2.499615         0.441870
 C         0.295911        -0.017489         0.213088
 O         1.528311         0.049413         0.282362
 C        -0.644387         1.212703        -0.150188
 H        -3.527457        -1.915419         0.719020
 H        -2.774374        -1.954861         2.442491
 H        -3.819636        -0.782878         2.032737
 H        -1.282879         0.050021         1.899319
 H        -2.966450         0.774640        -0.389311
 H        -2.453104        -1.665170        -1.136570
 H        -1.120140        -0.849423        -2.148243
 H         0.877113        -2.201528         0.739340
 H        -0.723376         1.876492         0.648589
 H        -0.500589         1.822974        -1.127218
