19
Iteration:  3676
 C        -2.916685        -1.397376         1.571663
 C        -1.775288        -0.523991         1.111383
 C        -2.001644         0.334363        -0.221848
 C        -1.561821        -0.985240        -0.961328
 C        -0.642421        -1.192122         0.238130
 O        -0.143703        -2.460966         0.443963
 C         0.319269         0.039016         0.081396
 O         1.532751         0.008526         0.297257
 C        -0.740541         1.208545        -0.052561
 H        -3.404655        -1.929330         0.733631
 H        -2.786369        -1.763345         2.527532
 H        -3.825170        -0.837814         1.743999
 H        -1.396500         0.112190         1.901437
 H        -2.960411         0.788936        -0.402840
 H        -2.477638        -1.451112        -1.228536
 H        -1.105447        -0.679792        -2.019952
 H         0.650008        -2.440083         1.018385
 H        -0.689428         1.939008         0.755790
 H        -0.528735         1.810072        -0.952464
