19
Iteration:  4921
 C        -2.970842        -1.496107         1.542694
 C        -1.815154        -0.482338         1.166190
 C        -1.964002         0.401096        -0.098133
 C        -1.567250        -0.849909        -1.005305
 C        -0.701369        -1.184878         0.296607
 O        -0.083953        -2.406452         0.534806
 C         0.307477         0.000005         0.109690
 O         1.510708        -0.064436         0.200752
 C        -0.708161         1.192548        -0.174805
 H        -3.234977        -2.185926         0.731694
 H        -2.700571        -2.176748         2.414857
 H        -4.002064        -1.069822         1.704762
 H        -1.505521         0.015587         2.056141
 H        -3.026466         0.872560        -0.209462
 H        -2.147014        -1.658111        -1.232739
 H        -0.902486        -0.740366        -1.979201
 H         0.879497        -2.205115         0.535613
 H        -0.708873         2.095527         0.496850
 H        -0.580760         1.735454        -1.187017
