19
Iteration:  1503charge 0 multiplicity 1
 C        -2.813007        -1.518560         1.593901
 C        -1.726021        -0.559229         1.221614
 C        -1.945722         0.434661        -0.055260
 C        -1.619061        -0.791740        -0.925990
 C        -0.672491        -1.128939         0.132986
 O        -0.203148        -2.467991         0.346689
 C         0.261644         0.045557         0.092270
 O         1.393224        -0.060879         0.526524
 C        -0.636763         1.185392        -0.377473
 H        -3.093304        -2.289281         0.777755
 H        -2.528579        -2.102242         2.434901
 H        -3.732351        -0.968909         1.636464
 H        -1.164105        -0.099000         2.073347
 H        -2.909361         0.956607        -0.021798
 H        -2.222260        -1.678434        -1.090615
 H        -1.430247        -0.470041        -1.935661
 H         0.714368        -2.459325         0.336763
 H        -0.484981         2.182440         0.178860
 H        -0.513603         1.498184        -1.397880
