19
Iteration:  4701
 C        -3.096126        -1.376649         1.476469
 C        -1.826268        -0.518580         1.161362
 C        -1.949958         0.352326        -0.145339
 C        -1.575373        -0.902923        -0.982368
 C        -0.685014        -1.193422         0.341197
 O         0.047689        -2.365146         0.555596
 C         0.264287        -0.007148         0.107736
 O         1.487833        -0.077392         0.093731
 C        -0.697066         1.171115        -0.068345
 H        -3.271025        -2.140467         0.594237
 H        -2.940300        -2.018118         2.340795
 H        -4.022830        -0.835831         1.648741
 H        -1.436620        -0.121625         2.183801
 H        -2.901759         0.882075        -0.290298
 H        -2.270741        -1.677540        -1.057491
 H        -0.973698        -0.633872        -1.928232
 H         1.041737        -2.124747         0.567804
 H        -0.699548         1.620896         0.873682
 H        -0.438615         1.945966        -0.873549
