19
Iteration:  1744
 C        -2.980530        -1.466985         1.551432
 C        -1.652605        -0.514407         1.287924
 C        -1.963554         0.463910         0.026365
 C        -1.705463        -0.870995        -0.965012
 C        -0.684885        -1.187902         0.215147
 O        -0.015935        -2.449684         0.262862
 C         0.248753         0.029970         0.033134
 O         1.375861        -0.109285         0.486594
 C        -0.602564         1.223016        -0.342643
 H        -2.935923        -2.275585         0.689587
 H        -2.804284        -2.011316         2.455494
 H        -3.913427        -0.859531         1.665559
 H        -1.292899        -0.225430         2.212997
 H        -2.928152         1.032782        -0.067318
 H        -2.630421        -1.405602        -0.977834
 H        -1.322533        -0.742828        -1.951101
 H         0.901402        -2.153673         0.611615
 H        -0.446393         2.189315         0.202922
 H        -0.430665         1.386862        -1.366508
