19
Iteration:  2336charge 0 multiplicity 1
 C        -2.768976        -1.428366         1.590728
 C        -1.635937        -0.601132         1.147703
 C        -2.013555         0.360034        -0.012943
 C        -1.733191        -0.817991        -1.007754
 C        -0.665062        -1.207425         0.082967
 O        -0.275895        -2.495815         0.335810
 C         0.312864        -0.002900         0.047533
 O         1.468157         0.041427         0.451416
 C        -0.645737         1.233112        -0.128898
 H        -3.181646        -1.899589         0.713629
 H        -2.619322        -2.241672         2.448861
 H        -3.568039        -0.785506         1.975635
 H        -1.035872        -0.176196         2.027970
 H        -2.693900         1.163433        -0.127705
 H        -2.528975        -1.568875        -1.182020
 H        -1.455945        -0.586327        -2.071047
 H         0.638597        -2.604810         0.587421
 H        -0.484892         2.005513         0.644343
 H        -0.490916         1.652412        -1.104367
