19
Iteration:  1582
 C        -3.021805        -1.435665         1.514545
 C        -1.807603        -0.585698         1.224110
 C        -2.029889         0.346664        -0.061554
 C        -1.508559        -0.772998        -1.001828
 C        -0.621840        -1.134545         0.259669
 O        -0.070918        -2.410208         0.441297
 C         0.265381         0.011394         0.162437
 O         1.472726        -0.107455         0.137559
 C        -0.666855         1.201173        -0.105129
 H        -3.627172        -1.844190         0.638742
 H        -2.815929        -2.289582         2.087530
 H        -3.610079        -0.994361         2.241880
 H        -1.519180        -0.082114         2.196704
 H        -2.998970         0.863997        -0.119564
 H        -2.249279        -1.511625        -1.304956
 H        -0.905073        -0.422465        -1.844250
 H         0.906992        -2.490837         0.614719
 H        -0.615390         2.077885         0.600035
 H        -0.434392         1.524134        -1.142626
