19
Iteration:  4090charge 0 multiplicity 1
 C        -2.947420        -1.501586         1.504769
 C        -1.813247        -0.476434         1.145925
 C        -1.943876         0.414685        -0.117116
 C        -1.556429        -0.885972        -1.017921
 C        -0.636294        -1.177482         0.280328
 O        -0.170695        -2.538697         0.545889
 C         0.291686         0.046370         0.086900
 O         1.507033         0.049771         0.234615
 C        -0.672705         1.177753        -0.104517
 H        -3.248293        -2.303591         0.690204
 H        -2.638722        -2.008114         2.411948
 H        -3.993070        -1.013983         1.592938
 H        -1.575004         0.064419         2.089005
 H        -2.663815         1.141047        -0.315200
 H        -2.395341        -1.592079        -1.045599
 H        -1.137095        -0.784623        -1.993505
 H         0.737940        -2.433913         0.320447
 H        -0.764439         1.936610         0.720696
 H        -0.496551         1.762018        -1.154956
