19
Iteration:  1224
 C        -2.725386        -1.522929         1.549901
 C        -1.798177        -0.440834         1.118481
 C        -1.939064         0.404395        -0.148037
 C        -1.702162        -0.826980        -0.945980
 C        -0.689604        -1.134517         0.181919
 O        -0.146578        -2.460338         0.319679
 C         0.238578         0.010860         0.123640
 O         1.384101        -0.096349         0.472552
 C        -0.636378         1.211548        -0.185144
 H        -3.250614        -2.219910         0.813960
 H        -2.080420        -2.048891         2.223579
 H        -3.492012        -0.947067         2.178061
 H        -1.365243         0.144801         1.994329
 H        -2.871217         0.982617        -0.249387
 H        -2.541072        -1.564417        -1.006907
 H        -1.257184        -0.970500        -1.931821
 H         0.787641        -2.315143         0.550947
 H        -0.492778         1.851670         0.679807
 H        -0.353864         1.688459        -1.126703
