19
Iteration:   644
 C        -3.024971        -1.372188         1.585167
 C        -1.773290        -0.457070         1.196197
 C        -1.951983         0.414716        -0.069616
 C        -1.699200        -0.943643        -0.796517
 C        -0.637327        -1.197358         0.166825
 O         0.015434        -2.441908         0.190697
 C         0.268502        -0.009327         0.117833
 O         1.460540        -0.028155         0.416951
 C        -0.639234         1.124686        -0.214614
 H        -3.549482        -1.772281         0.677927
 H        -2.711956        -2.386681         1.936069
 H        -3.826109        -1.007323         2.205603
 H        -1.199133         0.003957         2.046635
 H        -2.891350         0.940860        -0.313837
 H        -2.743314        -1.387526        -0.828360
 H        -1.303260        -0.739141        -1.804649
 H         0.870172        -2.295944         0.517259
 H        -0.532849         2.013865         0.384861
 H        -0.368008         1.545678        -1.227235
