19
Iteration:  3552charge 0 multiplicity 1
 C        -3.133145        -1.373879         1.581958
 C        -1.875325        -0.589235         1.048119
 C        -1.957826         0.310055        -0.135926
 C        -1.467972        -0.980078        -1.032881
 C        -0.634133        -1.165200         0.348216
 O        -0.076123        -2.366938         0.509668
 C         0.308523         0.087317         0.216596
 O         1.534021        -0.004682         0.138243
 C        -0.667281         1.148031        -0.106518
 H        -3.868018        -1.688113         0.832651
 H        -2.735165        -2.321949         2.041572
 H        -3.711094        -0.731794         2.224542
 H        -1.449047        -0.084340         1.933088
 H        -2.930490         0.721197        -0.455387
 H        -2.392822        -1.666396        -1.068007
 H        -0.934050        -0.834112        -2.001388
 H         0.881929        -2.205914         0.525936
 H        -0.582961         1.830201         0.693919
 H        -0.608245         1.797395        -0.988745
