19
Iteration:  2216charge 0 multiplicity 1
 C        -3.031283        -1.513818         1.523042
 C        -1.840179        -0.616725         1.148988
 C        -1.929918         0.468569         0.056751
 C        -1.605398        -0.774546        -0.892030
 C        -0.567607        -1.179804         0.279973
 O        -0.213741        -2.492217         0.442467
 C         0.371540         0.003563         0.147871
 O         1.571368         0.031976         0.044633
 C        -0.663241         1.211957        -0.152571
 H        -3.597139        -1.799621         0.642301
 H        -2.628225        -2.545459         1.934980
 H        -3.714403        -1.235395         2.308478
 H        -1.609085        -0.134192         2.080531
 H        -2.873022         0.981205        -0.008452
 H        -2.523333        -1.379425        -0.917480
 H        -1.244055        -0.631926        -1.931885
 H         0.695807        -2.647497         0.417328
 H        -0.503020         2.010739         0.642406
 H        -0.661194         1.671843        -1.170799
