19
Iteration:  2164charge 0 multiplicity 1
 C        -2.899229        -1.513006         1.570592
 C        -1.737155        -0.587397         1.062717
 C        -2.054487         0.440613        -0.096736
 C        -1.595447        -0.770215        -1.006291
 C        -0.668898        -1.139472         0.182177
 O        -0.117902        -2.429765         0.551811
 C         0.260853         0.039814         0.055249
 O         1.483143        -0.182754         0.119697
 C        -0.644735         1.259067         0.057720
 H        -3.815672        -1.536349         1.083552
 H        -2.635643        -2.672977         1.486985
 H        -2.953899        -1.248322         2.658914
 H        -1.530912        -0.016723         2.008345
 H        -3.027253         0.909277        -0.275766
 H        -2.504849        -1.360299        -1.142413
 H        -1.238800        -0.399797        -1.991561
 H         0.836703        -2.131312         0.657622
 H        -0.749459         1.839866         0.960401
 H        -0.288731         1.772496        -0.960741
