19
Iteration:  3861
 C        -3.093209        -1.390713         1.404836
 C        -1.911664        -0.560358         1.139226
 C        -1.983768         0.313774        -0.092348
 C        -1.567630        -0.885796        -0.957497
 C        -0.637681        -1.209648         0.339282
 O         0.015019        -2.294915         0.628943
 C         0.312864        -0.012003         0.064258
 O         1.518325        -0.078276         0.044069
 C        -0.638965         1.166791         0.009535
 H        -3.298992        -1.998986         0.406378
 H        -2.783021        -2.076202         2.201975
 H        -4.052880        -0.825537         1.493138
 H        -1.862830         0.022989         2.141488
 H        -2.808266         0.829680        -0.505295
 H        -2.374642        -1.604270        -1.047893
 H        -1.121958        -0.830037        -1.975552
 H         0.957774        -2.130511         0.735641
 H        -0.608462         1.760466         0.894178
 H        -0.467346         1.871832        -0.858097
