19
Iteration:   940
 C        -2.947338        -1.310179         1.765136
 C        -1.832628        -0.584112         1.136498
 C        -2.080564         0.331321        -0.165662
 C        -1.567330        -0.844410        -1.064304
 C        -0.723938        -1.191924         0.154082
 O         0.046504        -2.334079         0.242992
 C         0.296236        -0.010049         0.089477
 O         1.452127        -0.140688         0.432021
 C        -0.666594         1.163817        -0.102152
 H        -3.646781        -1.837818         1.192615
 H        -2.394052        -1.971717         2.478070
 H        -3.676612        -0.715766         2.314462
 H        -1.304104        -0.048124         1.922358
 H        -3.108949         0.701710        -0.348123
 H        -2.373398        -1.516281        -1.179572
 H        -1.204444        -0.623263        -2.058320
 H         0.895418        -2.247631         0.575147
 H        -0.443008         1.737304         0.801723
 H        -0.588597         1.575465        -1.121457
