19
Iteration:   547charge 0 multiplicity 1
 C        -2.882024        -1.629612         1.471631
 C        -1.790521        -0.474319         1.223848
 C        -2.022002         0.449491        -0.109936
 C        -1.621839        -0.773648        -0.948362
 C        -0.660915        -1.092526         0.316379
 O        -0.273991        -2.462728         0.529155
 C         0.327924         0.075042         0.060585
 O         1.551971        -0.064270         0.134714
 C        -0.624933         1.168385        -0.106711
 H        -3.062647        -2.355119         0.664345
 H        -2.546916        -2.294205         2.327188
 H        -3.879921        -1.332252         1.671819
 H        -1.642390         0.108048         2.128806
 H        -2.985801         1.030927        -0.095414
 H        -2.229025        -1.767778        -1.067302
 H        -1.031113        -0.641441        -1.845470
 H         0.771353        -2.481691         0.399921
 H        -0.346776         1.938347         0.516498
 H        -0.342185         1.672060        -1.070981
