19
Iteration:  3136
 C        -2.792033        -1.422025         1.618782
 C        -1.631719        -0.473717         1.132296
 C        -2.036155         0.295501        -0.168193
 C        -1.591438        -0.859929        -1.030512
 C        -0.674057        -1.246840         0.223839
 O        -0.220795        -2.483742         0.417152
 C         0.307232        -0.016048         0.031256
 O         1.383395         0.115974         0.545136
 C        -0.696089         1.125411        -0.317249
 H        -3.336790        -1.788160         0.730578
 H        -2.441354        -2.332503         2.253310
 H        -3.420998        -0.682224         2.142102
 H        -1.041783         0.094492         1.819623
 H        -3.068864         0.730331        -0.234468
 H        -2.414686        -1.484149        -1.278488
 H        -1.053012        -0.574890        -1.955731
 H         0.471852        -2.318279         1.140503
 H        -0.516832         1.835721         0.531374
 H        -0.548673         1.687687        -1.284732
