19
Iteration:  3257
 C        -3.005941        -1.411358         1.500412
 C        -1.808278        -0.554936         1.102818
 C        -1.953167         0.362596        -0.093216
 C        -1.591776        -0.890811        -0.998078
 C        -0.637711        -1.201805         0.274395
 O        -0.082116        -2.485696         0.619992
 C         0.278435         0.024793         0.061307
 O         1.481828         0.080558         0.191742
 C        -0.664181         1.135921        -0.087454
 H        -3.504014        -1.845704         0.538366
 H        -2.721998        -2.176453         2.263850
 H        -3.624295        -0.685533         2.042750
 H        -1.276814        -0.125580         1.954586
 H        -2.869920         0.822156        -0.477474
 H        -2.478282        -1.519583        -1.086399
 H        -1.135938        -0.684472        -1.992173
 H         0.829732        -2.341771         0.315485
 H        -0.633447         1.965584         0.614257
 H        -0.522130         1.613209        -1.136298
