19
Iteration:  3050charge 0 multiplicity 1
 C        -3.062907        -1.413903         1.395711
 C        -1.712509        -0.624381         1.136619
 C        -1.947046         0.343795        -0.188640
 C        -1.578688        -0.877434        -1.082773
 C        -0.700208        -1.178448         0.297507
 O         0.050693        -2.275403         0.808455
 C         0.225877        -0.009068         0.141759
 O         1.451123        -0.122107         0.047235
 C        -0.740458         1.216629        -0.076032
 H        -4.007751        -1.048516         0.881687
 H        -2.998653        -2.529746         1.163073
 H        -3.278404        -1.348180         2.473387
 H        -1.287349        -0.260039         2.108569
 H        -2.926314         0.873724        -0.053138
 H        -2.367678        -1.573198        -1.250746
 H        -0.963540        -0.663208        -1.983377
 H         1.037253        -2.109661         0.780942
 H        -0.901055         1.876651         0.795374
 H        -0.275696         1.768862        -0.955581
