19
Iteration:  4060
 C        -3.036769        -1.387253         1.604398
 C        -1.733538        -0.611165         1.138710
 C        -1.978334         0.341756        -0.046680
 C        -1.550666        -0.906942        -1.028195
 C        -0.670351        -1.157764         0.168583
 O        -0.124917        -2.410658         0.399963
 C         0.299795         0.037181         0.187764
 O         1.478458         0.074211         0.426712
 C        -0.660238         1.091733        -0.271661
 H        -3.512433        -2.043975         0.892793
 H        -2.699362        -2.036608         2.369630
 H        -3.690238        -0.556210         1.932683
 H        -1.338447        -0.172245         2.098434
 H        -2.842251         1.020290        -0.156043
 H        -2.295026        -1.753552        -1.097139
 H        -1.128038        -0.675423        -1.977188
 H         0.764680        -2.472064        -0.047337
 H        -0.611897         2.117523         0.208067
 H        -0.476985         1.181234        -1.337571
