19
Iteration:  2831
 C        -2.875151        -1.465548         1.652332
 C        -1.808269        -0.514376         1.122023
 C        -2.028727         0.308321        -0.279269
 C        -1.481548        -0.870985        -1.087166
 C        -0.736109        -1.134713         0.283486
 O        -0.183482        -2.429511         0.557497
 C         0.302876         0.033375         0.237507
 O         1.510421         0.022490         0.391406
 C        -0.724257         1.168270        -0.342274
 H        -3.564830        -1.016633         2.333797
 H        -3.534692        -1.884773         0.792012
 H        -2.447903        -2.370700         2.087887
 H        -1.312289         0.016485         2.064948
 H        -2.962780         0.842047        -0.635839
 H        -2.283862        -1.642161        -1.254489
 H        -0.726670        -0.689379        -1.906216
 H         0.770253        -2.379532         0.459020
 H        -0.594246         1.963388         0.370315
 H        -0.499485         1.498690        -1.383840
