19
Iteration:   907charge 0 multiplicity 1
 C        -2.843074        -1.380477         1.599605
 C        -1.734542        -0.505186         1.140762
 C        -2.017958         0.408648        -0.093817
 C        -1.662755        -0.871095        -1.020845
 C        -0.665483        -1.202397         0.128965
 O        -0.120568        -2.500473         0.379375
 C         0.261682        -0.021868         0.142677
 O         1.449490         0.001187         0.420828
 C        -0.676078         1.186786        -0.154534
 H        -3.259040        -1.933093         0.798299
 H        -2.405333        -2.213286         2.196716
 H        -3.620577        -1.053144         2.279596
 H        -1.240533        -0.226938         2.051072
 H        -3.004653         0.821950        -0.295300
 H        -2.556486        -1.356121        -0.913835
 H        -1.259134        -0.707480        -1.999056
 H         0.873547        -2.292481         0.125182
 H        -0.424753         2.113027         0.357716
 H        -0.445648         1.576316        -1.173419
