19
Iteration:  3463charge 0 multiplicity 1
 C        -2.736989        -1.519568         1.641853
 C        -1.777644        -0.349777         1.082936
 C        -2.041604         0.428108        -0.175492
 C        -1.697728        -0.949240        -0.951388
 C        -0.719067        -1.146317         0.155068
 O        -0.159224        -2.464492         0.365325
 C         0.290027        -0.009630         0.140139
 O         1.404435         0.014032         0.602803
 C        -0.596510         1.140588        -0.352054
 H        -2.578628        -2.404125         1.118802
 H        -2.550041        -1.768819         2.822478
 H        -3.834432        -1.340137         1.412285
 H        -1.291890         0.114293         1.964740
 H        -2.882861         1.010777        -0.538483
 H        -2.593058        -1.628127        -1.144274
 H        -1.122467        -0.675328        -1.867951
 H         0.838650        -2.424618         0.566827
 H        -0.356614         1.991275         0.240800
 H        -0.341920         1.319814        -1.409710
