19
Iteration:  3833
 C        -2.967041        -1.470087         1.450105
 C        -1.796373        -0.564326         1.113261
 C        -1.959042         0.415961        -0.124030
 C        -1.549030        -0.884318        -1.006687
 C        -0.648226        -1.217676         0.277344
 O        -0.171536        -2.448925         0.669430
 C         0.279391         0.010833         0.131020
 O         1.509960         0.054853         0.145681
 C        -0.653436         1.221631        -0.125353
 H        -3.379543        -1.915522         0.598078
 H        -2.549053        -2.320154         1.979709
 H        -3.833643        -0.977610         1.867799
 H        -1.566430        -0.053262         2.005678
 H        -2.967855         0.958883        -0.269657
 H        -2.434603        -1.626262        -0.933262
 H        -1.091031        -0.989627        -2.018648
 H         0.772735        -2.509628         0.732463
 H        -0.570490         2.087156         0.631380
 H        -0.403216         1.624830        -1.079650
