19
Iteration:  1140
 C        -2.947854        -1.330074         1.479753
 C        -1.777375        -0.537889         1.211130
 C        -2.009707         0.321857        -0.063680
 C        -1.646984        -0.913718        -0.895635
 C        -0.652768        -1.172214         0.248187
 O        -0.115647        -2.467510         0.259440
 C         0.302550         0.019292         0.172422
 O         1.541456         0.026184         0.289769
 C        -0.686600         1.152878        -0.114062
 H        -3.364826        -1.763473         0.548098
 H        -2.720571        -2.263470         2.150191
 H        -3.717770        -0.781904         2.072348
 H        -1.368945        -0.177502         2.146165
 H        -2.891235         0.936583        -0.250951
 H        -2.361273        -1.745914        -0.709953
 H        -1.288681        -0.781843        -1.888739
 H         0.853216        -2.348107         0.305662
 H        -0.623550         1.953292         0.636984
 H        -0.437292         1.666194        -1.117564
