19
Iteration:  1554charge 0 multiplicity 1
 C        -2.865499        -1.486578         1.663509
 C        -1.885424        -0.523413         1.105926
 C        -1.980910         0.377591        -0.273136
 C        -1.542288        -0.879819        -1.084547
 C        -0.696783        -1.161396         0.210234
 O        -0.192681        -2.469900         0.377706
 C         0.296800         0.019208         0.158611
 O         1.510208        -0.004018         0.233135
 C        -0.631228         1.239491         0.042693
 H        -3.377350        -2.171299         1.054764
 H        -2.295044        -2.147104         2.504400
 H        -3.573743        -0.847458         2.385238
 H        -1.549548         0.117937         1.919636
 H        -2.904929         0.965252        -0.449287
 H        -2.460065        -1.489690        -1.255106
 H        -0.985821        -0.904065        -2.065729
 H         0.579083        -2.625126         1.020609
 H        -0.707073         1.719664         0.990795
 H        -0.279005         2.057415        -0.631501
