19
Iteration:  4522
 C        -2.933909        -1.331354         1.612229
 C        -1.769289        -0.468069         1.190852
 C        -1.964002         0.341744        -0.134125
 C        -1.620451        -0.892024        -1.019774
 C        -0.616660        -1.213135         0.174221
 O        -0.031185        -2.413992         0.325752
 C         0.211796        -0.012106         0.175765
 O         1.412331        -0.037629         0.409603
 C        -0.664703         1.102856        -0.218953
 H        -3.124827        -2.055751         0.895826
 H        -2.739585        -2.002940         2.478927
 H        -3.752043        -0.687760         1.897921
 H        -1.293785         0.053014         2.066466
 H        -2.904699         0.871894        -0.181416
 H        -2.541016        -1.542780        -1.059113
 H        -1.130218        -0.904247        -1.949787
 H         0.773903        -2.096617         0.700083
 H        -0.788349         2.018073         0.375532
 H        -0.444441         1.350003        -1.213809
