19
Iteration:  2924
 C        -2.898642        -1.360380         1.566318
 C        -1.734884        -0.454041         1.136532
 C        -1.987361         0.296577        -0.294473
 C        -1.635501        -1.025534        -1.003292
 C        -0.686923        -1.172220         0.306663
 O        -0.005852        -2.404140         0.454650
 C         0.216432         0.097441         0.200204
 O         1.378600        -0.057557         0.504374
 C        -0.672055         1.176499        -0.312094
 H        -3.437547        -1.007937         2.531863
 H        -3.680675        -1.622335         0.865602
 H        -2.351537        -2.316907         1.767352
 H        -1.467692         0.235744         1.925523
 H        -2.854996         0.860958        -0.578072
 H        -2.404021        -1.825053        -1.100832
 H        -1.107323        -0.857901        -1.950797
 H         0.977614        -2.251310         0.163167
 H        -0.645694         2.138575         0.308518
 H        -0.342796         1.446375        -1.322925
