19
Iteration:   276
 C        -3.146440        -1.432266         1.460461
 C        -1.789732        -0.658147         1.263470
 C        -1.942412         0.435485        -0.014527
 C        -1.651031        -0.782020        -0.895988
 C        -0.618933        -1.194789         0.253927
 O        -0.013781        -2.496711         0.454729
 C         0.263058         0.004365         0.204205
 O         1.494939         0.042104         0.152772
 C        -0.571558         1.205681        -0.204901
 H        -3.500235        -1.690619         0.459809
 H        -3.023910        -2.462427         1.890034
 H        -3.933170        -0.867132         1.961607
 H        -1.293879        -0.551948         2.286605
 H        -2.881898         1.104448        -0.078617
 H        -2.385428        -1.720223        -0.971038
 H        -1.193000        -0.613083        -1.899754
 H         0.789991        -2.412130        -0.135587
 H        -0.437023         2.084167         0.379600
 H        -0.484454         1.578679        -1.265700
