19
Iteration:  4566
 C        -2.959298        -1.346475         1.678406
 C        -1.713733        -0.521865         1.113665
 C        -1.983332         0.380925        -0.178582
 C        -1.693571        -0.886831        -0.985909
 C        -0.610928        -1.276877         0.056099
 O        -0.059095        -2.418587         0.383876
 C         0.262623         0.012751         0.175153
 O         1.441948        -0.004339         0.530756
 C        -0.669233         1.134246        -0.269849
 H        -3.341891        -1.900293         0.897069
 H        -2.600277        -2.187680         2.300967
 H        -3.633071        -0.764669         2.294666
 H        -1.198328         0.021817         1.972252
 H        -2.924653         0.814470        -0.471201
 H        -2.508701        -1.654742        -0.869146
 H        -1.541895        -0.625009        -2.052706
 H         0.903666        -2.192247         0.300803
 H        -0.591137         2.048032         0.332332
 H        -0.413702         1.369467        -1.261387
