19
Iteration:  1035charge 0 multiplicity 1
 C        -2.826804        -1.568111         1.483415
 C        -1.805642        -0.538960         1.156494
 C        -1.966608         0.425873        -0.048327
 C        -1.622671        -0.809773        -1.015559
 C        -0.644167        -1.120850         0.233106
 O        -0.238642        -2.453908         0.508516
 C         0.274159         0.060517         0.154843
 O         1.467753        -0.023773         0.133070
 C        -0.606047         1.192786        -0.071162
 H        -3.292445        -2.322986         0.732472
 H        -2.334601        -2.233160         2.183404
 H        -3.811653        -1.300821         1.856333
 H        -1.596498        -0.078630         2.170387
 H        -2.739936         1.067445        -0.410060
 H        -2.479933        -1.481152        -1.150321
 H        -1.142642        -0.649966        -2.066592
 H         0.648993        -2.315788         0.997924
 H        -0.312246         1.765948         0.845900
 H        -0.370678         1.612336        -1.002084
