19
Iteration:   144charge 0 multiplicity 1
 C        -2.928229        -1.302323         1.469667
 C        -1.717936        -0.550875         1.229027
 C        -1.933029         0.365545         0.019891
 C        -1.738922        -0.857827        -0.902230
 C        -0.672726        -1.254922         0.214422
 O        -0.048445        -2.480614         0.261923
 C         0.268598        -0.058522         0.048892
 O         1.466876         0.034737         0.360140
 C        -0.643461         1.161548        -0.132525
 H        -2.884150        -2.193645         0.808327
 H        -2.943228        -1.730223         2.503217
 H        -3.854276        -0.842162         1.251282
 H        -1.374903        -0.123931         2.191705
 H        -2.822244         0.916973        -0.182931
 H        -2.732358        -1.355956        -0.937865
 H        -1.525642        -0.570753        -1.956508
 H         0.852208        -2.284142         0.644166
 H        -0.483324         1.825185         0.666825
 H        -0.667847         1.571693        -1.168376
