19
Iteration:  3829
 C        -2.913760        -1.458149         1.459799
 C        -1.836854        -0.554286         1.089429
 C        -1.943179         0.381051        -0.095730
 C        -1.537571        -0.896423        -1.002861
 C        -0.652201        -1.191968         0.284996
 O        -0.200754        -2.449621         0.658520
 C         0.296254         0.028676         0.126519
 O         1.504896         0.047553         0.170480
 C        -0.685356         1.225682        -0.129508
 H        -3.448283        -2.008696         0.581572
 H        -2.590551        -2.342664         1.984594
 H        -3.746170        -0.963014         1.996349
 H        -1.426844        -0.036028         2.005808
 H        -2.861241         0.816401        -0.450203
 H        -2.397838        -1.583625        -0.973195
 H        -1.119728        -0.699986        -2.090478
 H         0.782902        -2.632711         0.679059
 H        -0.504852         2.067163         0.518080
 H        -0.417667         1.519983        -1.160543
