19
Iteration:   805
 C        -3.054430        -1.370329         1.578478
 C        -1.803323        -0.644107         1.082926
 C        -1.979193         0.392480        -0.094641
 C        -1.575377        -0.810743        -0.975623
 C        -0.649127        -1.205278         0.176172
 O         0.018838        -2.396369         0.538988
 C         0.287411         0.009782         0.211954
 O         1.472578        -0.097811         0.097060
 C        -0.668854         1.230750        -0.027100
 H        -3.433063        -2.028756         0.697131
 H        -2.849538        -2.243764         2.171869
 H        -3.903302        -0.715415         1.819788
 H        -1.400868        -0.189513         1.984095
 H        -2.993290         0.844391        -0.206874
 H        -2.394129        -1.596042        -1.041792
 H        -1.376634        -0.827081        -2.019237
 H         0.861916        -2.270287        -0.027376
 H        -0.730327         1.831413         0.941946
 H        -0.455291         1.984020        -0.781555
