19
Iteration:  1150charge 0 multiplicity 1
 C        -2.982138        -1.414587         1.604407
 C        -1.766283        -0.510342         1.192630
 C        -1.892058         0.315954        -0.071010
 C        -1.650684        -0.887807        -0.986743
 C        -0.670264        -1.199879         0.260694
 O        -0.120906        -2.440715         0.267328
 C         0.295685         0.016608         0.170746
 O         1.479762         0.026630         0.316034
 C        -0.654993         1.168800        -0.138428
 H        -3.440452        -1.744726         0.712116
 H        -2.516096        -2.236087         2.212054
 H        -3.843082        -0.879750         2.054956
 H        -1.331088         0.145584         1.939653
 H        -2.909556         0.691380        -0.164680
 H        -2.539875        -1.581676        -1.160514
 H        -1.263509        -0.673510        -1.936451
 H         0.813903        -2.416112         0.263006
 H        -0.700956         1.944765         0.629138
 H        -0.295269         1.623899        -1.129818
