19
Iteration:  2121
 C        -2.966837        -1.470286         1.502876
 C        -1.779646        -0.536998         1.195484
 C        -1.994840         0.446947        -0.007153
 C        -1.720889        -0.813180        -0.848733
 C        -0.607433        -1.187027         0.197519
 O        -0.062707        -2.441159         0.314604
 C         0.279512        -0.022136         0.171218
 O         1.492124        -0.069362         0.255022
 C        -0.653371         1.210832        -0.185210
 H        -3.718867        -1.326494         0.760711
 H        -2.819857        -2.619873         1.487947
 H        -3.436426        -1.243489         2.493388
 H        -1.235033        -0.071338         2.098796
 H        -2.939415         0.995240         0.022418
 H        -2.496500        -1.576399        -0.952703
 H        -1.106782        -0.739191        -1.764584
 H         0.933254        -2.191501         0.401665
 H        -0.377353         2.014339         0.467972
 H        -0.486103         1.502065        -1.303112
