19
Iteration:   487
 C        -3.076101        -1.432590         1.515716
 C        -1.868604        -0.521474         1.167700
 C        -1.952898         0.346047        -0.110061
 C        -1.566716        -0.825509        -0.971087
 C        -0.685296        -1.158822         0.262217
 O        -0.020746        -2.386159         0.459246
 C         0.328617        -0.002384         0.104704
 O         1.542052        -0.110004         0.121019
 C        -0.696519         1.174443        -0.014362
 H        -3.275287        -2.225681         0.774265
 H        -2.721720        -2.043813         2.372894
 H        -4.035181        -0.954655         1.907330
 H        -1.517988         0.163091         1.984225
 H        -2.799979         0.963610        -0.277339
 H        -2.434184        -1.393653        -0.902582
 H        -1.156345        -0.866163        -2.039958
 H         0.875933        -2.101444         0.345893
 H        -0.592644         1.661026         1.038736
 H        -0.602325         1.890354        -0.811706
