19
Iteration:  3835
 C        -2.991950        -1.475783         1.442195
 C        -1.780451        -0.566504         1.120304
 C        -1.970490         0.429735        -0.141556
 C        -1.560530        -0.884517        -1.006754
 C        -0.646008        -1.222883         0.273138
 O        -0.162041        -2.450098         0.673672
 C         0.276631         0.004131         0.135084
 O         1.509768         0.056636         0.134299
 C        -0.638855         1.217607        -0.116388
 H        -3.367566        -1.894745         0.540172
 H        -2.529679        -2.339083         2.040640
 H        -3.873244        -0.968505         1.851832
 H        -1.587483        -0.024426         2.071978
 H        -2.954307         0.991738        -0.178203
 H        -2.384365        -1.593246        -0.943609
 H        -1.094783        -1.097722        -1.937705
 H         0.826952        -2.423923         0.748304
 H        -0.606858         2.034833         0.656891
 H        -0.386237         1.706087        -1.108241
