19
Iteration:   437charge 0 multiplicity 1
 C        -3.068103        -1.333377         1.640475
 C        -1.818119        -0.580351         1.201252
 C        -1.985974         0.297660        -0.088891
 C        -1.551322        -0.857752        -1.042984
 C        -0.586831        -1.171685         0.131628
 O        -0.065280        -2.481262         0.381334
 C         0.302522        -0.004401         0.103208
 O         1.489879        -0.013050         0.291820
 C        -0.702367         1.195233        -0.057835
 H        -3.687162        -1.729446         0.789624
 H        -3.009915        -2.285038         2.246222
 H        -3.585803        -0.581305         2.206313
 H        -1.418843         0.047566         1.978355
 H        -2.900689         0.919923        -0.318741
 H        -2.249047        -1.732521        -1.353496
 H        -1.089868        -0.402568        -1.898147
 H         0.972231        -2.301951         0.417401
 H        -0.553852         1.903875         0.731439
 H        -0.480604         1.634491        -1.071709
