19
Iteration:  3012charge 0 multiplicity 1
 C        -3.111154        -1.570853         1.365780
 C        -1.928622        -0.453998         1.237564
 C        -1.933299         0.391556        -0.266313
 C        -1.512967        -0.971547        -0.836541
 C        -0.606598        -1.144489         0.455508
 O        -0.156313        -2.403187         0.666271
 C         0.365362         0.058206         0.202143
 O         1.592365         0.030699        -0.071059
 C        -0.672621         1.193931        -0.148345
 H        -4.099508        -1.188211         1.096945
 H        -2.773235        -2.484901         0.868767
 H        -3.175438        -1.902793         2.437702
 H        -1.784530         0.137492         2.127909
 H        -2.911247         0.775945        -0.411341
 H        -2.248763        -1.816261        -1.010533
 H        -0.955289        -0.939719        -1.767715
 H         0.751051        -2.230661         0.426311
 H        -0.656768         1.909801         0.748073
 H        -0.454285         1.785251        -1.016648
