19
Iteration:  3315charge 0 multiplicity 1
 C        -2.918543        -1.642450         1.436172
 C        -1.865092        -0.490553         1.131961
 C        -2.034017         0.433515        -0.140659
 C        -1.533120        -0.790155        -1.034154
 C        -0.692798        -1.143600         0.388421
 O        -0.141491        -2.377936         0.783419
 C         0.301569         0.035405         0.122909
 O         1.498789        -0.110830        -0.011632
 C        -0.615071         1.243228        -0.132572
 H        -3.830341        -1.704827         0.632808
 H        -2.495285        -2.635819         1.367971
 H        -3.552530        -1.494760         2.348622
 H        -1.500276        -0.220505         2.085087
 H        -2.930333         0.852506        -0.537441
 H        -2.140032        -1.691093        -1.194502
 H        -1.064959        -0.469126        -1.935441
 H         0.813575        -2.258422         0.982207
 H        -0.594380         1.918539         0.770976
 H        -0.273708         1.896114        -0.990991
