19
Iteration:  3231charge 0 multiplicity 1
 C        -3.038307        -1.373282         1.589537
 C        -1.739115        -0.589964         1.148368
 C        -1.964708         0.328667        -0.076201
 C        -1.656883        -0.904092        -1.020182
 C        -0.628624        -1.162429         0.229143
 O        -0.024697        -2.412164         0.419864
 C         0.305881         0.018112         0.099049
 O         1.481963         0.000442         0.350915
 C        -0.693856         1.140015        -0.255929
 H        -3.291554        -2.029227         0.856972
 H        -2.980638        -1.859111         2.597175
 H        -3.796421        -0.541378         1.580836
 H        -1.134841        -0.050738         1.975210
 H        -3.014911         0.760904        -0.094113
 H        -2.489253        -1.627046        -1.074650
 H        -1.084541        -0.796937        -1.995662
 H         0.666285        -2.130722         0.990316
 H        -0.865943         1.860889         0.573831
 H        -0.465709         1.627605        -1.169987
