19
Iteration:  4010charge 0 multiplicity 1
 C        -2.826333        -1.371201         1.698162
 C        -1.777170        -0.482641         1.035529
 C        -1.960296         0.277874        -0.226048
 C        -1.698817        -0.983724        -1.059644
 C        -0.656803        -1.158662         0.139619
 O        -0.020220        -2.351471         0.346767
 C         0.210961        -0.002912         0.136424
 O         1.340411        -0.060886         0.552407
 C        -0.591005         1.212577        -0.163047
 H        -3.469753        -1.750569         0.911275
 H        -2.351343        -2.362496         2.102462
 H        -3.295635        -0.691538         2.408759
 H        -1.417467         0.149664         1.842576
 H        -2.896008         0.911877        -0.407295
 H        -2.595757        -1.561315        -0.903745
 H        -1.370453        -1.006444        -2.185396
 H         0.729473        -2.417782         0.956602
 H        -0.560346         2.010117         0.561538
 H        -0.438442         1.534247        -1.264254
