19
Iteration:  1216
 C        -2.702582        -1.504138         1.619895
 C        -1.729309        -0.426106         1.068548
 C        -1.996717         0.431713        -0.207381
 C        -1.641531        -0.880471        -0.989579
 C        -0.722942        -1.172924         0.163588
 O        -0.156188        -2.388090         0.340990
 C         0.209821        -0.059127         0.123748
 O         1.376150        -0.124666         0.482988
 C        -0.639992         1.214220        -0.121363
 H        -3.138819        -2.012258         0.851967
 H        -2.037645        -2.162444         2.218647
 H        -3.605765        -1.257054         2.162678
 H        -1.358747         0.231697         1.900767
 H        -2.935409         0.954463        -0.316179
 H        -2.550991        -1.461539        -0.858028
 H        -1.240892        -0.731902        -1.944375
 H         0.773624        -2.270040         0.368521
 H        -0.472509         1.918761         0.693531
 H        -0.415721         1.866845        -1.010819
