19
Iteration:  1095charge 0 multiplicity 1
 C         1.471542         0.555823        -0.042310
 C         0.100449         0.219157        -0.134222
 C        -1.092060         0.809801        -0.551461
 C        -2.088527        -0.299944        -0.186993
 C        -1.745278        -0.718376         1.315435
 C        -0.419300        -1.121439         0.553942
 O         0.541885        -2.003983         1.053948
 C        -1.297419        -1.550834        -0.767957
 O        -2.150496        -2.675597        -0.941304
 H         2.066877        -0.315243        -0.034525
 H         1.825124         1.294689        -0.856402
 H         1.884889         0.919084         0.881111
 H        -1.376550         1.729868        -1.113041
 H        -3.143191        -0.220995        -0.488511
 H        -1.639915         0.119185         2.018085
 H        -2.204912        -1.568867         1.680074
 H         0.592427        -1.998285         2.080737
 H        -0.704306        -1.260998        -1.650620
 H        -1.681532        -3.418734        -0.444332
