19
Iteration:  3294charge 0 multiplicity 1
 C         1.470368         0.642655         0.061866
 C         0.042663         0.158166         0.017992
 C        -1.003755         0.807884        -0.531445
 C        -2.099731        -0.116604        -0.360782
 C        -1.757391        -0.699059         1.126395
 C        -0.498367        -1.139058         0.383557
 O         0.540432        -1.961525         0.955826
 C        -1.368170        -1.607021        -0.753222
 O        -2.010033        -2.793831        -0.570589
 H         1.900164        -0.327419        -0.238112
 H         1.523555         1.386381        -0.721666
 H         1.893721         0.955744         0.993580
 H        -0.891578         1.785025        -0.847914
 H        -3.170400         0.051029        -0.597569
 H        -1.520831         0.132024         1.919167
 H        -2.335614        -1.552329         1.450064
 H         0.162778        -2.687677         1.531766
 H        -0.648973        -1.670966        -1.597917
 H        -1.787020        -3.409770        -1.261211
