19
Iteration:  3114charge 0 multiplicity 1
 C         1.499163         0.696087        -0.054762
 C         0.031560         0.237640         0.059150
 C        -1.015866         0.889643        -0.495746
 C        -2.150888        -0.133820        -0.225968
 C        -1.799053        -0.803980         1.201445
 C        -0.453239        -1.229663         0.485287
 O         0.455452        -2.190136         0.933642
 C        -1.337721        -1.433009        -0.832870
 O        -1.823637        -2.731203        -0.631432
 H         1.574750         1.208524        -0.955558
 H         1.630596         1.363585         0.769972
 H         2.188297        -0.151648         0.036733
 H        -1.070599         1.680001        -1.161097
 H        -3.152050         0.037769        -0.552994
 H        -1.668494        -0.166909         2.061249
 H        -2.573694        -1.623163         1.417715
 H        -0.012480        -2.950765         1.199428
 H        -0.905715        -1.234619        -1.801931
 H        -2.355727        -2.962488        -1.355399
