19
Iteration:  3860
 C         1.586685         0.370367        -0.137051
 C         0.156747         0.210577        -0.158302
 C        -0.865377         0.657828        -0.960988
 C        -2.026859        -0.375630        -0.644487
 C        -1.998617        -0.465765         0.911117
 C        -0.555308        -0.990255         0.559163
 O         0.179325        -1.661767         1.530663
 C        -1.185000        -1.701939        -0.649829
 O        -1.923345        -2.878227        -0.360164
 H         2.085450        -0.431661         0.482000
 H         1.960318         0.427194        -1.170011
 H         1.887171         1.248213         0.368496
 H        -1.223198         1.655990        -1.389433
 H        -2.952957        -0.340161        -1.174062
 H        -1.976158         0.436096         1.535270
 H        -2.759962        -1.241742         1.270060
 H         1.128611        -1.557231         1.455439
 H        -0.672835        -1.797254        -1.565491
 H        -1.887177        -3.083269         0.564033
