19
Iteration:  1261charge 0 multiplicity 1
 C         1.506673         0.685635         0.142172
 C         0.082403         0.248205        -0.077614
 C        -1.015224         0.835408        -0.651642
 C        -2.063051        -0.298162        -0.383354
 C        -1.732328        -0.758503         1.149258
 C        -0.400095        -1.234786         0.381084
 O         0.578649        -1.961904         1.059550
 C        -1.330413        -1.587144        -0.801687
 O        -2.213016        -2.662235        -0.566869
 H         1.847304         1.110633        -0.762348
 H         1.422389         1.507723         0.976876
 H         2.170432        -0.122617         0.434849
 H        -1.109647         1.829527        -1.106024
 H        -3.113132        -0.421427        -0.670181
 H        -1.612625         0.094100         1.818617
 H        -2.416443        -1.507555         1.526819
 H         0.398840        -2.873689         0.683964
 H        -0.916827        -1.842199        -1.787206
 H        -2.055288        -3.332697         0.027428
