19
Iteration:  1440
 C         1.581090         0.694180         0.038478
 C         0.088931         0.177982        -0.158848
 C        -0.983938         0.779712        -0.744182
 C        -2.083897        -0.226684        -0.225021
 C        -1.727702        -0.637049         1.128589
 C        -0.481915        -1.206175         0.439006
 O         0.300177        -2.038378         1.243345
 C        -1.391037        -1.515172        -0.817936
 O        -2.028387        -2.835936        -0.626007
 H         1.511790         1.868250        -0.081401
 H         2.065113         0.483565         0.968322
 H         2.317141         0.158629        -0.675203
 H        -1.057380         1.762649        -1.274907
 H        -3.147350        -0.130910        -0.423057
 H        -1.598187         0.196273         1.888053
 H        -2.293307        -1.539168         1.553065
 H         1.252422        -1.626080         1.330953
 H        -0.915940        -1.453611        -1.892626
 H        -1.476417        -3.405606        -1.059810
