19
Iteration:    31
 C         1.508433         0.778830         0.218819
 C         0.106765         0.351289         0.183770
 C        -1.083139         0.937244         0.086898
 C        -2.059134        -0.235363        -0.078677
 C        -1.716045        -1.045539         1.150493
 C        -0.360287        -1.230359         0.213562
 O         0.493455        -2.292509         0.266803
 C        -1.470310        -1.380378        -0.879484
 O        -2.069694        -2.611762        -0.653975
 H         2.214431         0.163984         0.674184
 H         2.010823         0.786089        -0.773283
 H         1.784323         1.794962         0.710967
 H        -1.419818         1.965685        -0.220759
 H        -3.079199         0.116270        -0.265268
 H        -1.695384        -0.321650         2.000733
 H        -2.257980        -2.004152         1.476951
 H         0.477160        -2.630948         1.179596
 H        -1.211565        -1.149996        -1.940465
 H        -1.680487        -3.228750        -1.284175
