19
Iteration:  4022
 C         1.527352         0.595827         0.018850
 C         0.158718         0.046296        -0.293426
 C        -0.784406         0.506606        -1.105167
 C        -2.005683        -0.303433        -0.704870
 C        -1.915420        -0.279794         0.826871
 C        -0.546396        -0.972859         0.563968
 O         0.214559        -1.626536         1.567012
 C        -1.211082        -1.837687        -0.659326
 O        -2.096481        -2.900507        -0.132468
 H         1.424500         1.223077         0.954473
 H         2.247456        -0.173423         0.345511
 H         2.074449         1.181356        -0.788008
 H        -0.600146         1.017101        -2.072914
 H        -2.870272        -0.210216        -1.357684
 H        -1.898867         0.625901         1.367711
 H        -2.536551        -1.065641         1.387427
 H         0.788605        -2.216973         1.169329
 H        -0.489679        -2.065067        -1.593636
 H        -1.681706        -3.798603         0.022601
