19
Iteration:  3334
 C         1.623691         0.557926        -0.047303
 C         0.113894         0.253581        -0.082158
 C        -1.066738         0.766515        -0.595036
 C        -2.233472        -0.264720        -0.313616
 C        -1.817487        -0.732301         1.143903
 C        -0.465147        -1.105687         0.520522
 O         0.446585        -1.929075         1.093374
 C        -1.248780        -1.519248        -0.732544
 O        -1.927241        -2.785401        -0.614984
 H         2.082160         0.605503        -1.031576
 H         1.882971         1.609171         0.343724
 H         2.153658        -0.127955         0.630059
 H        -1.363292         1.696020        -0.938509
 H        -3.196184        -0.112538        -0.871162
 H        -1.973926        -0.050704         1.997637
 H        -2.409880        -1.597619         1.457308
 H         0.206158        -2.844728         0.831903
 H        -0.690710        -1.477936        -1.656942
 H        -2.823726        -2.602936        -1.008042
