19
Iteration:  3057charge 0 multiplicity 1
 C         1.437947         0.636765         0.097195
 C         0.092612         0.202927         0.010157
 C        -1.004295         0.793272        -0.453103
 C        -2.157516        -0.226101        -0.228616
 C        -1.651924        -0.839753         1.178713
 C        -0.310081        -1.157359         0.477153
 O         0.654295        -1.955322         1.033877
 C        -1.527272        -1.480495        -0.876217
 O        -2.202615        -2.718754        -0.820650
 H         2.144811         0.032880        -0.550160
 H         1.589910         1.661099        -0.237533
 H         1.934238         0.536723         1.082393
 H        -1.113296         1.895123        -0.779712
 H        -3.195884         0.165350        -0.512941
 H        -1.699119        -0.073516         2.066400
 H        -2.182523        -1.751361         1.447016
 H         0.569312        -2.948912         0.891892
 H        -1.174668        -1.276053        -1.856754
 H        -1.615834        -3.466857        -1.299204
