19
Iteration:  1971charge 0 multiplicity 1
 C         1.478644         0.764768         0.181700
 C         0.101233         0.223083        -0.058261
 C        -1.116655         0.784227        -0.494858
 C        -2.059373        -0.306936        -0.256739
 C        -1.588114        -0.863562         1.174001
 C        -0.383513        -1.195646         0.369226
 O         0.612746        -2.103621         0.878653
 C        -1.391054        -1.518604        -0.866642
 O        -2.231755        -2.578689        -0.607014
 H         1.916171         0.361272         1.061266
 H         2.236331         0.606582        -0.698724
 H         1.618259         1.880168         0.251551
 H        -1.221757         1.858084        -0.654821
 H        -3.116831        -0.040491        -0.479865
 H        -1.323634        -0.148140         2.048800
 H        -2.142616        -1.798547         1.526442
 H        -0.018692        -2.749436         1.367077
 H        -1.231640        -1.177419        -1.930983
 H        -2.263394        -3.387322        -1.297430
