19
Iteration:  1550charge 0 multiplicity 1
 C         1.463237         0.601007         0.054178
 C         0.104430         0.221766        -0.104261
 C        -0.986686         0.789521        -0.629157
 C        -2.149296        -0.251738        -0.302024
 C        -1.714506        -0.495383         1.169280
 C        -0.438160        -1.070803         0.459761
 O         0.395235        -2.078687         1.041780
 C        -1.432936        -1.579929        -0.718955
 O        -1.947276        -2.844658        -0.721852
 H         2.086857         0.352262        -0.869586
 H         1.509341         1.625639         0.229704
 H         2.012641        -0.048450         0.799752
 H        -0.971261         1.692828        -1.216685
 H        -3.197926        -0.029500        -0.550840
 H        -1.429675         0.349229         1.919780
 H        -2.400881        -1.148584         1.707677
 H         0.147272        -2.470440         1.838482
 H        -0.802929        -1.541348        -1.669827
 H        -1.239587        -3.448711        -0.336424
