19
Iteration:   591charge 0 multiplicity 1
 C         1.463576         0.761541         0.059344
 C         0.091674         0.196920         0.178543
 C        -1.028353         0.861818        -0.335560
 C        -2.074000        -0.264202        -0.188998
 C        -1.712507        -0.923410         1.226978
 C        -0.382593        -1.281191         0.364345
 O         0.691978        -2.075465         0.753209
 C        -1.420435        -1.449461        -0.867979
 O        -2.242574        -2.622194        -0.716776
 H         1.526321         1.838119         0.258273
 H         2.259482         0.308698         0.752476
 H         1.933699         0.747138        -0.953396
 H        -1.113835         1.791583        -0.825082
 H        -3.074411         0.108501        -0.346255
 H        -1.533974        -0.146693         2.031530
 H        -2.441977        -1.807312         1.512641
 H         0.300028        -2.851563         1.299282
 H        -1.029066        -1.306212        -1.887539
 H        -2.223025        -3.208856        -1.541500
