19
Iteration:  2507
 C         1.464617         0.762275         0.114167
 C         0.100245         0.195426         0.073809
 C        -1.074494         0.935802        -0.014013
 C        -2.109693        -0.105242        -0.002499
 C        -1.709725        -0.938742         1.209183
 C        -0.449193        -1.307368         0.226432
 O         0.467580        -2.238029         0.641683
 C        -1.400320        -1.373153        -0.932806
 O        -1.972741        -2.718569        -0.762366
 H         1.625440         1.334588        -0.870286
 H         1.753783         1.464297         0.974052
 H         2.210614        -0.060099         0.045566
 H        -1.173916         2.041015        -0.346225
 H        -3.157417         0.198430        -0.249255
 H        -1.473315        -0.455508         2.120786
 H        -2.269347        -1.878435         1.309868
 H         1.301650        -1.917268         0.296097
 H        -0.870811        -1.305927        -1.952663
 H        -2.683282        -3.018836        -1.364789
