19
Iteration:  2907
 C         1.514726         0.621140         0.049966
 C         0.048578         0.226192        -0.073628
 C        -1.098138         0.875582        -0.333688
 C        -2.176868        -0.148264        -0.039797
 C        -1.727991        -0.858094         1.299771
 C        -0.444049        -1.183602         0.466671
 O         0.531929        -2.170916         0.891093
 C        -1.400198        -1.438165        -0.776990
 O        -1.950331        -2.744349        -1.073801
 H         1.688294         1.682751         0.296077
 H         2.153558         0.118808         0.851750
 H         2.117353         0.510636        -0.918701
 H        -1.268446         1.969268        -0.630616
 H        -3.227440         0.130739        -0.345337
 H        -1.683391        -0.262696         2.212038
 H        -2.310796        -1.771304         1.437621
 H         1.260135        -1.591974         1.148450
 H        -1.017522        -1.135563        -1.822425
 H        -2.569823        -3.020235        -0.304428
