19
Iteration:  1322charge 0 multiplicity 1
 C         1.475932         0.633881         0.004148
 C         0.075333         0.164760        -0.081629
 C        -1.041810         0.771391        -0.636857
 C        -2.069580        -0.196505        -0.318810
 C        -1.690103        -0.610095         1.149815
 C        -0.434261        -1.057776         0.485618
 O         0.410241        -2.037287         1.094984
 C        -1.406456        -1.578340        -0.804380
 O        -1.890553        -2.850414        -0.604759
 H         1.694108         1.694644        -0.311749
 H         1.741153         0.536777         1.005072
 H         2.207155        -0.085761        -0.441506
 H        -1.259489         1.733598        -0.981222
 H        -3.132252        -0.019823        -0.462591
 H        -1.686753         0.332962         1.788452
 H        -2.353566        -1.368679         1.557050
 H        -0.067406        -2.698785         1.636383
 H        -0.831167        -1.370657        -1.692614
 H        -2.486884        -2.948968        -1.388405
