19
Iteration:  4649
 C         1.629930         0.486142        -0.133915
 C         0.252868         0.005387        -0.256951
 C        -0.618394         0.267120        -1.305326
 C        -1.857344        -0.587387        -0.922970
 C        -2.111049        -0.230363         0.565683
 C        -0.583155        -0.841567         0.643819
 O         0.006419        -1.182117         1.906788
 C        -1.163835        -1.913225        -0.454107
 O        -2.115105        -2.876781         0.005760
 H         1.797458         1.130684        -1.025580
 H         1.827761         0.959615         0.803737
 H         2.379582        -0.314158        -0.203816
 H        -0.421169         0.427295        -2.394039
 H        -2.801125        -0.678591        -1.560551
 H        -2.294575         0.805244         0.818380
 H        -2.899156        -0.954463         0.919607
 H         0.900036        -1.414628         1.882813
 H        -0.564386        -2.342847        -1.256687
 H        -1.751010        -3.753229        -0.051443
