19
Iteration:  3856
 C         1.566493         0.383427        -0.128563
 C         0.105781         0.201514        -0.174007
 C        -0.841587         0.653508        -0.997394
 C        -2.031063        -0.368257        -0.645719
 C        -1.990204        -0.471546         0.945370
 C        -0.500371        -0.984733         0.530292
 O         0.162844        -1.688369         1.549195
 C        -1.197446        -1.684378        -0.621656
 O        -1.912338        -2.872880        -0.381559
 H         1.904594        -0.388794         0.528402
 H         1.937922         0.262312        -1.131930
 H         1.890805         1.386639         0.310292
 H        -1.088666         1.635171        -1.362457
 H        -2.972844        -0.370660        -1.214119
 H        -1.903033         0.431792         1.684920
 H        -2.748910        -1.101265         1.294223
 H         1.183107        -1.520693         1.440371
 H        -0.654295        -1.861085        -1.582948
 H        -1.864531        -3.109993         0.589620
