19
Iteration:  3283charge 0 multiplicity 1
 C         1.489154         0.663123         0.062317
 C         0.109395         0.216975        -0.038587
 C        -0.971725         0.800973        -0.552539
 C        -2.124870        -0.226244        -0.300018
 C        -1.821458        -0.626345         1.177203
 C        -0.461712        -1.172496         0.466815
 O         0.532694        -1.998716         0.907638
 C        -1.341895        -1.586098        -0.749667
 O        -2.065488        -2.831129        -0.630988
 H         2.260801        -0.144052         0.130846
 H         1.840359         1.200883        -0.809437
 H         1.633915         1.308475         0.905320
 H        -1.086334         1.770070        -0.912619
 H        -3.124308         0.180966        -0.577085
 H        -1.737669         0.156053         2.031698
 H        -2.418200        -1.420764         1.606276
 H         0.097481        -2.597581         1.443027
 H        -0.902651        -1.491812        -1.783274
 H        -1.522156        -3.390966        -1.124729
