19
Iteration:  3829
 C         1.598923         0.534885        -0.087084
 C         0.140687         0.129180        -0.187111
 C        -0.870336         0.567316        -0.961106
 C        -2.064992        -0.315627        -0.542302
 C        -1.878843        -0.343276         0.923348
 C        -0.530904        -0.971043         0.592020
 O         0.119726        -1.800554         1.565330
 C        -1.236427        -1.697721        -0.679674
 O        -1.901909        -2.918679        -0.464605
 H         1.831879         0.606460         1.011003
 H         2.329636        -0.135491        -0.680350
 H         1.515491         1.508303        -0.538067
 H        -1.130847         0.952601        -1.969580
 H        -3.072633        -0.098147        -0.915598
 H        -1.767893         0.549441         1.444385
 H        -2.713740        -0.918721         1.453185
 H         1.090950        -1.708833         1.210797
 H        -0.701298        -1.798155        -1.687152
 H        -1.732664        -3.161807         0.505223
