19
Iteration:  2190
 C         1.496514         0.627538         0.149895
 C         0.054923         0.194883         0.039231
 C        -1.079780         0.795680        -0.294688
 C        -2.111785        -0.271325        -0.172781
 C        -1.771684        -0.817809         1.178831
 C        -0.439038        -1.139458         0.363127
 O         0.548453        -2.090509         0.578672
 C        -1.354263        -1.411676        -0.813269
 O        -1.988779        -2.636395        -0.577814
 H         2.167018         0.068997        -0.485503
 H         1.643000         1.757054        -0.026407
 H         1.938036         0.447009         1.158300
 H        -1.242162         1.872468        -0.606132
 H        -3.127731         0.004628        -0.373839
 H        -1.433180        -0.155232         2.035084
 H        -2.286746        -1.755753         1.566174
 H         0.195202        -3.002415         0.663885
 H        -1.018416        -1.313367        -1.843702
 H        -2.284408        -2.889212        -1.385644
