19
Iteration:  3056charge 0 multiplicity 1
 C         1.432859         0.628156         0.107322
 C         0.090650         0.198021         0.007340
 C        -1.002803         0.779408        -0.459676
 C        -2.160313        -0.234398        -0.218234
 C        -1.650545        -0.839600         1.175129
 C        -0.303733        -1.152528         0.476757
 O         0.652998        -1.946882         1.031121
 C        -1.527509        -1.475679        -0.873569
 O        -2.198474        -2.710695        -0.825848
 H         2.182109         0.027194        -0.536940
 H         1.582313         1.653517        -0.286700
 H         1.938639         0.570055         1.090353
 H        -1.107413         1.891522        -0.777942
 H        -3.199824         0.165028        -0.487928
 H        -1.705746        -0.071804         2.057247
 H        -2.190996        -1.730955         1.433393
 H         0.576731        -2.968818         0.897714
 H        -1.214127        -1.263601        -1.861507
 H        -1.639572        -3.451208        -1.266670
