19
Iteration:  2438
 C         1.416564         0.675522         0.163240
 C         0.045629         0.224528         0.020624
 C        -1.023592         0.898158        -0.174359
 C        -2.143813        -0.182359        -0.060447
 C        -1.594054        -0.915461         1.271034
 C        -0.393460        -1.155604         0.289252
 O         0.672843        -2.188598         0.619976
 C        -1.476722        -1.428839        -0.809058
 O        -2.154164        -2.690015        -0.854128
 H         1.484790         1.711562        -0.122946
 H         1.889028         0.680921         1.187729
 H         2.122645         0.062263        -0.472938
 H        -1.180184         1.907555        -0.233513
 H        -3.172332        -0.097179        -0.334775
 H        -1.205054        -0.483287         2.177823
 H        -2.241488        -1.724699         1.266810
 H         0.736994        -2.264801         1.540768
 H        -1.161103        -1.264366        -1.883085
 H        -2.496933        -2.731417        -1.671569
