19
Iteration:   464charge 0 multiplicity 1
 C         1.472024         0.663038        -0.054361
 C         0.123559         0.186394         0.130148
 C        -1.103415         0.835107        -0.142605
 C        -2.108969        -0.266902        -0.137466
 C        -1.593833        -1.008038         1.258933
 C        -0.423104        -1.245674         0.367820
 O         0.683848        -1.957537         0.933682
 C        -1.426242        -1.430506        -0.880246
 O        -2.245041        -2.592587        -0.915694
 H         1.968565         0.241921        -0.997348
 H         1.534401         1.687756        -0.369892
 H         2.197602         0.559703         0.749636
 H        -1.196383         1.830636        -0.597129
 H        -3.164680        -0.072006        -0.229808
 H        -1.406020        -0.330831         2.046618
 H        -2.225815        -1.811724         1.573272
 H         0.528320        -2.907442         0.782118
 H        -0.883649        -1.344819        -1.842952
 H        -2.612590        -2.712642        -1.779022
