19
Iteration:   442
 C         1.462919         0.658923        -0.131045
 C         0.128279         0.169105        -0.041588
 C        -1.103274         0.794606        -0.221175
 C        -2.157216        -0.235851         0.036546
 C        -1.701670        -0.972677         1.346338
 C        -0.312702        -1.210475         0.487517
 O         0.742038        -2.044114         0.936335
 C        -1.478337        -1.384496        -0.819122
 O        -2.216584        -2.562937        -1.063309
 H         2.292210        -0.019848        -0.500989
 H         1.647545         1.503234        -0.746832
 H         1.825361         0.938443         0.850835
 H        -1.214290         1.852285        -0.459199
 H        -3.224881        -0.092892        -0.037962
 H        -1.678305        -0.430537         2.251526
 H        -2.364761        -1.808227         1.474695
 H         0.312170        -2.904734         1.151437
 H        -1.114298        -1.021853        -1.794722
 H        -1.900657        -2.993119        -1.925575
