19
Iteration:  4135charge 0 multiplicity 1
 C         1.602424         0.342176        -0.105916
 C         0.100043         0.226957        -0.256393
 C        -0.837192         0.540925        -1.167920
 C        -2.027936        -0.377936        -0.746356
 C        -1.958486        -0.278725         0.827661
 C        -0.536476        -0.890447         0.622903
 O         0.051543        -1.561951         1.731652
 C        -1.243593        -1.799173        -0.632662
 O        -1.822727        -2.993152        -0.155446
 H         2.052491        -0.663525        -0.352463
 H         2.129875         1.120916        -0.715070
 H         1.884520         0.568880         0.912021
 H        -0.706137         1.242981        -2.011449
 H        -2.931626        -0.156789        -1.329814
 H        -1.908342         0.746222         1.318350
 H        -2.563676        -0.905125         1.458686
 H         1.072106        -1.676544         1.541965
 H        -0.512762        -2.025349        -1.512089
 H        -2.335255        -3.393846        -0.865856
