19
Iteration:  1946charge 0 multiplicity 1
 C         1.530443         0.726531         0.077871
 C         0.169743         0.235814         0.023590
 C        -0.976805         0.838162        -0.419867
 C        -2.118539        -0.245670        -0.209374
 C        -1.820960        -0.802941         1.143734
 C        -0.462957        -1.162067         0.426022
 O         0.643335        -2.037285         0.783031
 C        -1.390191        -1.568708        -0.770226
 O        -2.181641        -2.715901        -0.607192
 H         2.219036         0.055395         0.670002
 H         2.008348         1.078887        -0.823056
 H         1.546187         1.681236         0.658431
 H        -1.039407         1.808569        -0.957386
 H        -3.115044         0.018160        -0.600982
 H        -1.879404        -0.116348         2.003296
 H        -2.239272        -1.826820         1.365342
 H         0.219840        -2.945011         0.919079
 H        -0.891749        -1.502548        -1.749182
 H        -2.341418        -3.315969        -1.432707
