19
Iteration:  4363
 C         1.568096         0.462178        -0.216938
 C         0.146261         0.039175        -0.248736
 C        -0.788697         0.419776        -1.150185
 C        -1.997902        -0.328954        -0.843350
 C        -2.006164        -0.160321         0.718950
 C        -0.597167        -0.911205         0.660509
 O         0.008438        -1.491200         1.824392
 C        -1.113871        -1.843183        -0.499268
 O        -1.846710        -3.006345        -0.208064
 H         2.265250        -0.350996         0.037820
 H         1.982842         0.881988        -1.100207
 H         1.626839         1.174333         0.571604
 H        -0.471309         0.762236        -2.158394
 H        -2.805165        -0.264682        -1.551057
 H        -2.088276         0.942811         1.034033
 H        -2.647190        -0.740304         1.315205
 H         0.502629        -2.229560         1.641529
 H        -0.376143        -2.013469        -1.225999
 H        -2.075261        -3.189690         0.676793
