19
Iteration:  2018charge 0 multiplicity 1
 C         1.567471         0.720812         0.116199
 C         0.107811         0.208198        -0.005780
 C        -1.019390         0.750270        -0.519919
 C        -2.168853        -0.279892        -0.131540
 C        -1.733159        -0.757478         1.349512
 C        -0.417897        -1.169890         0.440965
 O         0.584838        -2.081979         0.701577
 C        -1.504001        -1.427679        -0.809016
 O        -2.137019        -2.724835        -0.786466
 H         1.763694         1.278236         1.047463
 H         2.327672        -0.088665         0.151388
 H         1.980908         1.333968        -0.678011
 H        -1.176177         1.821982        -0.701684
 H        -3.188412         0.030258        -0.245790
 H        -1.656243         0.062150         2.065676
 H        -2.275280        -1.635441         1.734941
 H         0.253088        -2.811000         1.237424
 H        -0.906355        -1.290974        -1.738855
 H        -1.238798        -3.190396        -0.690980
