19
Iteration:  3606charge 0 multiplicity 1
 C         1.587276         0.480642        -0.044587
 C         0.085026         0.186886        -0.120032
 C        -0.978261         0.652911        -0.793449
 C        -2.053307        -0.337019        -0.500600
 C        -1.783065        -0.529740         1.068965
 C        -0.503486        -1.040584         0.531360
 O         0.321598        -1.751308         1.361784
 C        -1.300144        -1.630659        -0.753031
 O        -1.985254        -2.787521        -0.523187
 H         1.656697         1.231776         0.746355
 H         2.208715        -0.402770         0.211493
 H         1.772083         0.965334        -1.030330
 H        -1.042718         1.623494        -1.316143
 H        -3.140952        -0.289617        -0.800821
 H        -1.738972         0.428882         1.693920
 H        -2.350724        -1.349907         1.501076
 H        -0.135800        -2.619001         1.611721
 H        -0.825908        -1.624765        -1.761548
 H        -1.394866        -3.586280        -0.799690
