19
Iteration:   893charge 0 multiplicity 1
 C         1.477593         0.591176        -0.138727
 C         0.100377         0.195897         0.012903
 C        -1.078226         0.843776        -0.400117
 C        -2.150645        -0.196368        -0.078646
 C        -1.641756        -0.741410         1.269664
 C        -0.410476        -1.127406         0.453564
 O         0.397583        -2.044717         1.026368
 C        -1.399943        -1.445383        -0.798221
 O        -1.891343        -2.796793        -0.833889
 H         1.580234         1.299205        -1.056510
 H         1.780047         1.073382         0.723886
 H         1.935053        -0.431681        -0.241346
 H        -1.218110         1.922884        -0.697481
 H        -3.181053        -0.050949        -0.395028
 H        -1.645124         0.002949         2.055289
 H        -2.270003        -1.579671         1.574728
 H         0.023358        -2.973332         0.881416
 H        -0.965510        -1.162083        -1.779841
 H        -1.855966        -2.944777        -1.856360
