19
Iteration:  3507charge 0 multiplicity 1
 C         1.530030         0.767883         0.051166
 C         0.161399         0.144444        -0.198079
 C        -0.926674         0.765399        -0.721903
 C        -2.027494        -0.215593        -0.475395
 C        -1.873330        -0.551417         1.095934
 C        -0.477531        -1.132996         0.456722
 O         0.253815        -2.042207         1.195820
 C        -1.309181        -1.630869        -0.720500
 O        -1.903725        -2.939638        -0.453737
 H         2.277339         0.158962        -0.511959
 H         1.348463         1.792181        -0.297754
 H         1.852282         0.650672         1.153209
 H        -0.960706         1.786479        -1.164542
 H        -3.012453         0.135488        -0.913902
 H        -1.855723         0.225046         1.868959
 H        -2.606951        -1.380056         1.246386
 H         0.906268        -1.574865         1.724543
 H        -0.710560        -1.747784        -1.722565
 H        -2.724835        -2.979214        -0.977858
