19
Iteration:  3751charge 0 multiplicity 1
 C         1.559412         0.593162         0.047539
 C         0.125014         0.175268        -0.167357
 C        -0.867645         0.620228        -0.991038
 C        -2.004989        -0.329130        -0.625671
 C        -1.878062        -0.458583         0.963844
 C        -0.487615        -1.024236         0.562370
 O         0.357749        -1.745166         1.352197
 C        -1.253334        -1.725597        -0.631317
 O        -2.024061        -2.917960        -0.330857
 H         1.803799         1.377061        -0.724760
 H         1.556389         1.094760         1.076319
 H         2.229371        -0.253613         0.013130
 H        -1.127021         1.608574        -1.420899
 H        -2.939946        -0.223990        -1.100337
 H        -2.017617         0.491494         1.460846
 H        -2.634001        -1.213845         1.269321
 H         0.169386        -2.723418         1.108508
 H        -0.731538        -1.937501        -1.588955
 H        -2.912386        -2.687727        -0.194151
