19
Iteration:  1520charge 0 multiplicity 1
 C         1.530053         0.683252         0.134756
 C         0.178357         0.225014        -0.165752
 C        -0.959453         0.787733        -0.569596
 C        -2.070858        -0.243968        -0.352009
 C        -1.795167        -0.730477         1.098587
 C        -0.429145        -1.150497         0.315738
 O         0.453889        -1.956302         1.014605
 C        -1.411259        -1.639329        -0.840784
 O        -2.115649        -2.764392        -0.506717
 H         2.115974         0.932421        -0.763490
 H         1.458709         1.590140         0.778817
 H         2.075534        -0.168530         0.708420
 H        -1.056038         1.750489        -0.958914
 H        -3.109965         0.019328        -0.640074
 H        -1.521870         0.017935         1.882754
 H        -2.493588        -1.496084         1.351913
 H         0.151659        -2.160401         1.970642
 H        -0.899447        -1.715803        -1.833083
 H        -1.606341        -3.284499         0.040233
