19
Iteration:  1757
 C         1.512469         0.654837         0.223763
 C         0.075426         0.239754        -0.076558
 C        -1.018590         0.819426        -0.595553
 C        -2.092789        -0.201808        -0.279108
 C        -1.749953        -0.586172         1.205981
 C        -0.450698        -1.143731         0.463354
 O         0.556669        -2.114219         0.771642
 C        -1.320221        -1.561923        -0.797698
 O        -2.166705        -2.821804        -0.637416
 H         1.400036         1.773571         0.360724
 H         1.809489         0.065247         1.032492
 H         2.216208         0.474563        -0.593309
 H        -1.132354         1.818013        -1.065130
 H        -3.164558        -0.087071        -0.520611
 H        -1.607247         0.376287         1.753629
 H        -2.358276        -1.357189         1.683593
 H         0.553379        -2.672662         1.594198
 H        -0.917649        -1.431273        -1.803298
 H        -1.470136        -3.496118        -0.208795
