19
Iteration:  2530charge 0 multiplicity 1
 C         1.530894         0.814938        -0.025374
 C         0.173500         0.238875         0.133216
 C        -1.071587         0.853377        -0.108975
 C        -2.145285        -0.262783        -0.041536
 C        -1.719702        -1.066195         1.183520
 C        -0.317518        -1.209895         0.383571
 O         0.445147        -2.248961         0.784432
 C        -1.474281        -1.273297        -0.889903
 O        -2.042676        -2.617326        -0.840221
 H         1.598795         1.454829        -1.009173
 H         1.604652         1.470494         0.906297
 H         2.272044         0.011832         0.022943
 H        -1.192753         1.942759        -0.147189
 H        -3.237677        -0.025981        -0.198223
 H        -1.515284        -0.622089         2.151500
 H        -2.183360        -2.104596         1.223920
 H         1.201295        -2.299119         0.055562
 H        -1.026529        -1.092913        -1.952717
 H        -2.633621        -2.884991        -1.646173
