19
Iteration:   206charge 0 multiplicity 1
 C         1.568059         0.596379        -0.083901
 C         0.069583         0.305239         0.066462
 C        -1.221229         0.910676        -0.209674
 C        -2.164497        -0.168921         0.199268
 C        -1.636721        -0.948136         1.394986
 C        -0.448701        -1.170537         0.431375
 O         0.378342        -2.205541         0.647776
 C        -1.484432        -1.324711        -0.749551
 O        -1.731789        -2.705279        -1.020291
 H         1.732325         1.390727        -0.846545
 H         2.099790         0.920145         0.924794
 H         2.184502        -0.371794        -0.488647
 H        -1.417410         1.907629        -0.559407
 H        -3.196608         0.119650         0.134341
 H        -1.481783        -0.472758         2.419325
 H        -2.280293        -1.887444         1.469793
 H         0.386851        -2.751748        -0.109104
 H        -1.202119        -0.787069        -1.704033
 H        -2.309287        -2.761026        -1.744828
