19
Iteration:  1336
 C         1.533352         0.556748        -0.011029
 C         0.080667         0.244586        -0.204713
 C        -1.025870         0.825383        -0.595869
 C        -2.171335        -0.294071        -0.240669
 C        -1.730463        -0.604236         1.171675
 C        -0.430297        -1.101283         0.447215
 O         0.360131        -1.990140         1.174408
 C        -1.298165        -1.506324        -0.779026
 O        -1.841056        -2.865862        -0.680895
 H         1.641267         1.582729        -0.111868
 H         1.829027         0.296455         1.026838
 H         2.114407         0.082680        -0.769718
 H        -1.078292         1.767193        -1.235545
 H        -3.214322        -0.084580        -0.575357
 H        -1.643261         0.103389         2.008659
 H        -2.253487        -1.425627         1.647746
 H        -0.332139        -2.585879         1.493737
 H        -0.967753        -1.430991        -1.832884
 H        -2.842720        -2.925641        -0.871974
