19
Iteration:  3044
 C         1.529699         0.628593         0.141410
 C         0.095713         0.130416        -0.026890
 C        -1.058262         0.697525        -0.514178
 C        -2.116860        -0.304043        -0.099289
 C        -1.699672        -0.826109         1.191529
 C        -0.418826        -1.163276         0.421149
 O         0.679632        -1.891689         1.004991
 C        -1.453593        -1.451828        -0.894126
 O        -2.198906        -2.623148        -0.842800
 H         2.235459        -0.228582        -0.214820
 H         1.538553         1.559726        -0.482489
 H         1.637824         0.921398         1.208832
 H        -1.189653         1.747117        -0.937370
 H        -3.224657        -0.104661        -0.165745
 H        -1.532631        -0.111381         2.077078
 H        -2.259040        -1.700008         1.457833
 H         0.327577        -2.798713         0.957790
 H        -1.082280        -1.181455        -1.857079
 H        -1.640112        -3.259205        -1.153203
