19
Iteration:  3054
 C         1.433089         0.615209         0.122483
 C         0.087498         0.186805         0.002569
 C        -1.004297         0.759926        -0.472814
 C        -2.163973        -0.249225        -0.197822
 C        -1.650528        -0.834432         1.171477
 C        -0.300008        -1.144259         0.472994
 O         0.652456        -1.936164         1.026272
 C        -1.525468        -1.468291        -0.867574
 O        -2.190748        -2.697635        -0.835136
 H         2.217679         0.025920        -0.496103
 H         1.563705         1.634169        -0.365391
 H         1.931166         0.630262         1.107655
 H        -1.095132         1.832955        -0.766770
 H        -3.177857         0.141380        -0.427158
 H        -1.704949        -0.098858         2.013075
 H        -2.219965        -1.715853         1.417150
 H         0.577952        -2.934623         0.911608
 H        -1.257716        -1.237201        -1.906701
 H        -1.699484        -3.386079        -1.195469
