19
Iteration:  1696
 C         1.534864         0.729462         0.056460
 C         0.123023         0.209226        -0.054360
 C        -0.990791         0.810383        -0.488941
 C        -2.132256        -0.215614        -0.313519
 C        -1.748719        -0.595459         1.149376
 C        -0.413241        -1.166616         0.427972
 O         0.361846        -2.174731         0.984273
 C        -1.310703        -1.495520        -0.798404
 O        -2.121440        -2.856239        -0.664080
 H         1.774042         1.109424         1.038114
 H         2.376464        -0.011838        -0.056955
 H         1.673053         1.567542        -0.656733
 H        -1.011101         1.890981        -0.685997
 H        -3.111729        -0.107686        -0.747735
 H        -1.589417         0.283151         1.783384
 H        -2.383932        -1.380134         1.668870
 H         1.114378        -1.825665         1.586034
 H        -0.933869        -1.568595        -1.830123
 H        -1.474467        -3.647801        -0.844019
