19
Iteration:  2681
 C         1.516886         0.853123         0.231377
 C         0.086926         0.245751        -0.005679
 C        -1.031002         0.873619        -0.316594
 C        -2.161083        -0.224698         0.006439
 C        -1.567397        -0.956830         1.340437
 C        -0.395984        -1.183603         0.362914
 O         0.533572        -2.335033         0.609544
 C        -1.541018        -1.431491        -0.823198
 O        -2.146588        -2.642189        -0.921626
 H         1.402531         1.678961         0.953008
 H         2.342245         0.248858         0.631519
 H         1.857356         1.273449        -0.689990
 H        -1.172216         1.879280        -0.460751
 H        -3.207996         0.109588        -0.252528
 H        -1.358552        -0.477255         2.248013
 H        -2.292272        -1.797782         1.529752
 H         1.301874        -1.938417         1.185619
 H        -1.143229        -1.210678        -1.794485
 H        -1.777813        -3.118290        -1.795758
