19
Iteration:  4405
 C         1.622762         0.418581        -0.096292
 C         0.226071         0.141441        -0.334905
 C        -0.779822         0.406693        -1.187561
 C        -2.021846        -0.436896        -0.834546
 C        -1.988970        -0.319086         0.761810
 C        -0.548042        -0.822622         0.579440
 O        -0.032525        -1.388370         1.783053
 C        -1.184059        -1.814339        -0.558741
 O        -1.867168        -3.035586        -0.076825
 H         2.294989         0.044665        -0.909648
 H         1.823229         1.492314        -0.060277
 H         1.937660        -0.035893         0.849017
 H        -0.683950         0.661975        -2.297940
 H        -2.891510        -0.199376        -1.433421
 H        -1.974191         0.717630         1.283527
 H        -2.638942        -0.975091         1.329233
 H         0.798713        -1.904180         1.484660
 H        -0.393828        -2.113515        -1.241769
 H        -2.759759        -2.648335        -0.095443
