19
Iteration:  4956
 C         1.622262         0.585479        -0.043334
 C         0.282105        -0.079767        -0.424714
 C        -0.543194         0.089039        -1.487163
 C        -1.797605        -0.656436        -1.045478
 C        -2.012655        -0.067100         0.420483
 C        -0.654079        -0.894746         0.642791
 O        -0.160802        -1.156997         1.904199
 C        -1.157048        -1.991259        -0.350455
 O        -2.047427        -2.970772         0.193970
 H         1.510426         1.550582         0.564058
 H         2.163382        -0.055195         0.683544
 H         2.327038         0.843392        -0.884866
 H        -0.424666         0.687677        -2.382245
 H        -2.653229        -0.760129        -1.658541
 H        -1.940833         0.996962         0.599059
 H        -3.036125        -0.484703         0.934717
 H         0.194773        -0.211718         2.146325
 H        -0.450178        -2.433867        -1.117794
 H        -2.210269        -2.780944         1.155378
