19
Iteration:   551charge 0 multiplicity 1
 C         1.505963         0.686335         0.208942
 C         0.123368         0.338259        -0.125360
 C        -1.118120         0.930730        -0.395507
 C        -2.161123        -0.156727        -0.025687
 C        -1.639320        -0.763792         1.340229
 C        -0.421059        -1.184582         0.283265
 O         0.455366        -2.272197         0.678712
 C        -1.471157        -1.407265        -0.823223
 O        -1.889560        -2.815643        -0.666075
 H         1.696822         1.744560        -0.089400
 H         1.429780         0.510005         1.256235
 H         2.063304        -0.122643        -0.203706
 H        -1.354366         1.876864        -0.774475
 H        -3.193591         0.020089        -0.253795
 H        -1.404218         0.029425         1.975375
 H        -2.170126        -1.589631         1.727368
 H         0.304486        -3.002834         0.119989
 H        -1.076832        -1.211209        -1.854622
 H        -2.123984        -3.033660        -1.534453
