19
Iteration:  1448charge 0 multiplicity 1
 C         1.543302         0.731543         0.062786
 C         0.111458         0.115549        -0.163184
 C        -0.960880         0.724116        -0.714345
 C        -2.116097        -0.214495        -0.293734
 C        -1.732697        -0.587586         1.168708
 C        -0.456484        -1.148873         0.466664
 O         0.344762        -2.041931         1.164069
 C        -1.406890        -1.597822        -0.767439
 O        -2.040829        -2.830191        -0.641077
 H         1.651561         1.787136        -0.230417
 H         1.925685         0.602554         1.110057
 H         2.218709         0.210256        -0.557587
 H        -1.055936         1.680851        -1.127695
 H        -3.076103         0.171123        -0.628816
 H        -1.554805         0.214647         1.845511
 H        -2.316440        -1.487613         1.587690
 H         1.193822        -1.667325         1.565670
 H        -1.048860        -1.256501        -1.758001
 H        -1.553752        -3.447304        -1.159517
