19
Iteration:  1571
 C         1.570336         0.566490        -0.053582
 C         0.079147         0.254869        -0.037643
 C        -1.053268         0.659155        -0.705573
 C        -2.135189        -0.195635        -0.259076
 C        -1.826542        -0.632014         1.272263
 C        -0.504316        -1.059904         0.598111
 O         0.337460        -2.068058         1.035629
 C        -1.235077        -1.465151        -0.773663
 O        -1.918059        -2.737703        -0.716855
 H         2.085879        -0.071977        -0.857527
 H         1.632926         1.569948        -0.334506
 H         2.217466         0.294346         0.779829
 H        -1.124749         1.415273        -1.463380
 H        -3.149290        -0.209027        -0.649182
 H        -1.733102         0.263401         2.017065
 H        -2.482174        -1.397100         1.704179
 H         0.288818        -2.499361         1.934662
 H        -0.877110        -1.308033        -1.827170
 H        -1.275488        -3.558709        -0.768409
