19
Iteration:  3174
 C         1.439634         0.523350        -0.005325
 C        -0.012797         0.198007         0.037495
 C        -1.100497         0.818912        -0.516022
 C        -2.135969        -0.159123        -0.234001
 C        -1.751214        -0.751427         1.189224
 C        -0.432816        -1.101419         0.460152
 O         0.538373        -2.000113         0.985938
 C        -1.266067        -1.446945        -0.806306
 O        -1.925328        -2.766499        -0.650876
 H         1.700793         1.503699         0.540801
 H         1.903857        -0.254168         0.658180
 H         2.041749         0.456601        -0.923217
 H        -1.223330         1.651181        -1.224240
 H        -3.191549         0.059165        -0.563388
 H        -1.548705        -0.038698         2.057679
 H        -2.343859        -1.610097         1.443118
 H         0.143370        -2.846922         0.738113
 H        -0.799161        -1.586930        -1.870610
 H        -2.328952        -2.902923        -1.584909
