19
Iteration:  1899
 C         1.577503         0.498775        -0.040164
 C         0.053828         0.282846        -0.112115
 C        -1.131679         0.805766        -0.412202
 C        -2.200984        -0.243950        -0.164215
 C        -1.713897        -0.728427         1.260526
 C        -0.404527        -1.054095         0.508893
 O         0.380157        -2.084818         0.932074
 C        -1.365866        -1.373558        -0.802058
 O        -1.787325        -2.761399        -0.700434
 H         2.134389        -0.411267        -0.442691
 H         1.897989         1.405389        -0.512695
 H         1.979794         0.600112         0.979418
 H        -1.348490         1.633758        -1.075602
 H        -3.268440        -0.107633        -0.267156
 H        -1.719920         0.058746         1.992719
 H        -2.321319        -1.601232         1.479320
 H        -0.276410        -2.851770         0.776475
 H        -0.971352        -1.321687        -1.809063
 H        -2.314195        -2.973044        -1.559381
