19
Iteration:  3315
 C         1.556773         0.564431         0.001874
 C         0.081269         0.272936        -0.067932
 C        -1.070281         0.831421        -0.517764
 C        -2.064679        -0.309723        -0.330966
 C        -1.890666        -0.742529         1.108135
 C        -0.413767        -1.111455         0.426822
 O         0.530111        -1.956976         1.069912
 C        -1.329644        -1.499039        -0.849678
 O        -1.973589        -2.757391        -0.509266
 H         2.037005        -0.050228        -0.793893
 H         1.744744         1.640485        -0.060380
 H         1.833607         0.238578         0.995605
 H        -1.115162         1.682455        -1.117821
 H        -3.128800        -0.069328        -0.575961
 H        -1.837125         0.037687         1.980970
 H        -2.367742        -1.638109         1.476231
 H         0.008222        -2.839668         1.237233
 H        -1.002395        -1.399892        -1.861443
 H        -2.454911        -3.102947        -1.362822
