19
Iteration:  3340charge 0 multiplicity 1
 C         1.607331         0.572632        -0.085537
 C         0.080241         0.237337        -0.049987
 C        -1.055406         0.772300        -0.606086
 C        -2.144347        -0.264027        -0.333335
 C        -1.827597        -0.695481         1.159943
 C        -0.518692        -1.099463         0.552005
 O         0.432278        -1.927179         1.099833
 C        -1.240367        -1.510185        -0.724725
 O        -1.920270        -2.834827        -0.647849
 H         1.982667         0.692233        -1.120729
 H         1.575485         1.455392         0.541237
 H         2.105545        -0.229559         0.498246
 H        -1.115957         1.862545        -1.032223
 H        -3.163093        -0.087516        -0.652013
 H        -1.758707        -0.013831         2.033466
 H        -2.306551        -1.650226         1.487214
 H         0.296210        -2.918450         0.779477
 H        -0.681165        -1.356206        -1.717310
 H        -2.893574        -2.583405        -0.864388
