19
Iteration:    26charge 0 multiplicity 1
 C         1.578889         0.790783         0.196556
 C         0.084992         0.368313         0.168898
 C        -1.079383         0.911762         0.090585
 C        -2.101741        -0.245224        -0.097346
 C        -1.708035        -1.061274         1.170225
 C        -0.382735        -1.200314         0.247680
 O         0.477506        -2.279328         0.268650
 C        -1.427151        -1.374143        -0.863038
 O        -2.088395        -2.610885        -0.681714
 H         2.358748         0.118867         0.848907
 H         2.025919         0.670208        -0.810748
 H         1.752370         1.783301         0.548515
 H        -1.481984         1.915592         0.085791
 H        -3.145474         0.026962        -0.309933
 H        -1.781375        -0.318625         1.961815
 H        -2.158367        -1.970597         1.443087
 H         0.507785        -2.631346         1.208158
 H        -1.208485        -1.204907        -1.929550
 H        -1.636216        -3.290064        -1.293185
