19
Iteration:  2546
 C         1.499028         0.797958        -0.019067
 C         0.076550         0.279691         0.144643
 C        -1.140744         0.852914        -0.187891
 C        -2.105193        -0.245506         0.026223
 C        -1.582515        -1.064658         1.304839
 C        -0.413485        -1.204748         0.403117
 O         0.497597        -2.256669         0.817274
 C        -1.335067        -1.399181        -0.865220
 O        -2.112317        -2.559508        -0.980059
 H         1.516592         1.309210        -0.952145
 H         1.884762         1.465175         0.736518
 H         2.137621        -0.111022        -0.042389
 H        -1.329536         1.852756        -0.687444
 H        -3.138262        -0.000828        -0.120688
 H        -1.625757        -0.466881         2.273392
 H        -2.140359        -1.980929         1.413300
 H         0.989177        -2.626881         0.086333
 H        -1.022431        -0.953014        -1.770981
 H        -2.380104        -2.496772        -1.881806
