19
Iteration:  3298
 C         1.454856         0.612464         0.042824
 C         0.036310         0.158142         0.029834
 C        -1.004026         0.829129        -0.528104
 C        -2.118595        -0.128293        -0.358585
 C        -1.728544        -0.716444         1.123601
 C        -0.492194        -1.133978         0.407396
 O         0.536614        -1.954407         0.976640
 C        -1.353159        -1.575007        -0.787119
 O        -2.004651        -2.793976        -0.542537
 H         2.008502        -0.288504        -0.323218
 H         1.484994         1.486941        -0.634775
 H         1.958332         0.784224         1.052480
 H        -0.968802         1.915196        -0.960070
 H        -3.126942        -0.007374        -0.688501
 H        -1.540645         0.061275         1.787298
 H        -2.415843        -1.566826         1.343472
 H         0.187396        -2.713554         1.517672
 H        -0.678393        -1.670486        -1.738376
 H        -1.915259        -3.438220        -1.328537
