19
Iteration:  1349
 C         1.592673         0.575326        -0.068480
 C         0.120391         0.199972        -0.102693
 C        -1.086232         0.772328        -0.588871
 C        -2.162684        -0.200192        -0.311595
 C        -1.772875        -0.697027         1.229246
 C        -0.503063        -1.105477         0.448761
 O         0.354597        -1.915093         1.211969
 C        -1.337471        -1.512546        -0.799905
 O        -1.822103        -2.847134        -0.710808
 H         1.886423         1.601985        -0.053248
 H         2.114076        -0.033040         0.764377
 H         2.106544         0.109248        -0.897868
 H        -1.340094         1.651359        -1.257324
 H        -3.162327        -0.091281        -0.778551
 H        -1.625846         0.202981         1.775567
 H        -2.308692        -1.607992         1.618583
 H         0.043512        -2.850593         1.291763
 H        -0.687653        -1.331033        -1.697510
 H        -2.709426        -2.706811        -0.332515
