19
Iteration:  1535
 C         1.559093         0.644224         0.104117
 C         0.111546         0.130136        -0.175773
 C        -1.033069         0.826008        -0.604765
 C        -2.125656        -0.165304        -0.337329
 C        -1.720743        -0.550467         1.128896
 C        -0.483882        -1.171689         0.421189
 O         0.478785        -2.038766         1.056479
 C        -1.363807        -1.550685        -0.832519
 O        -2.053593        -2.909870        -0.610777
 H         2.141363         0.774794        -0.805826
 H         1.605558         1.665875         0.629629
 H         1.983119         0.041189         0.845152
 H        -1.248154         1.939659        -0.749599
 H        -3.136900         0.080375        -0.664067
 H        -1.637694         0.320970         1.708229
 H        -2.302707        -1.395418         1.622727
 H        -0.059035        -2.230401         1.857404
 H        -1.091966        -1.417916        -1.873804
 H        -1.338955        -3.422527        -0.033101
