19
Iteration:  2219charge 0 multiplicity 1
 C         1.460091         0.674834         0.215988
 C         0.082480         0.304393         0.010189
 C        -1.107266         0.924189        -0.354417
 C        -2.059975        -0.206776        -0.142594
 C        -1.670498        -0.779164         1.288875
 C        -0.388159        -1.172380         0.353650
 O         0.611471        -2.183426         0.647528
 C        -1.497804        -1.493804        -0.761716
 O        -2.080154        -2.787130        -0.710814
 H         2.102869        -0.204504         0.227823
 H         1.871070         1.437349        -0.474949
 H         1.597254         1.211383         1.189227
 H        -1.183419         1.900360        -0.973623
 H        -3.123478         0.152461        -0.302331
 H        -1.264411        -0.115499         2.031195
 H        -2.148984        -1.638728         1.674251
 H         0.302014        -2.924526        -0.011109
 H        -1.279049        -1.261658        -1.844409
 H        -2.158897        -2.913457        -1.697843
