19
Iteration:   352charge 0 multiplicity 1
 C         1.576558         0.719893         0.050373
 C         0.089884         0.282280         0.178609
 C        -1.042224         0.852877        -0.166560
 C        -2.181498        -0.164768        -0.003615
 C        -1.707227        -0.979515         1.262076
 C        -0.422651        -1.128808         0.345531
 O         0.436293        -2.283962         0.453615
 C        -1.476066        -1.346781        -0.863158
 O        -1.986057        -2.691703        -0.783937
 H         2.072412         0.825904         1.093819
 H         2.077380        -0.049590        -0.609132
 H         1.517533         1.727853        -0.392408
 H        -1.194267         1.747085        -0.672505
 H        -3.228957         0.139436        -0.218139
 H        -1.580024        -0.419250         2.171726
 H        -2.401188        -1.784578         1.495587
 H         1.247218        -2.045109         1.033131
 H        -1.418148        -1.018944        -1.930540
 H        -1.303354        -3.206508        -0.217693
