19
Iteration:   494
 C         1.532094         0.638449         0.048583
 C         0.044773         0.298562         0.034499
 C        -1.096274         0.854884        -0.225789
 C        -2.164334        -0.211099        -0.127082
 C        -1.760509        -0.917025         1.170068
 C        -0.404586        -1.188828         0.391095
 O         0.660866        -2.151598         0.692856
 C        -1.382808        -1.374083        -0.786260
 O        -2.014100        -2.663885        -0.719784
 H         1.937213         0.680823        -0.979058
 H         1.710151         1.646870         0.516575
 H         2.258088        -0.047848         0.473169
 H        -1.362959         1.830925        -0.671857
 H        -3.232841        -0.056812        -0.291710
 H        -1.883840        -0.350282         2.076262
 H        -2.364223        -1.838755         1.355981
 H         0.194105        -3.028216         0.868388
 H        -0.816898        -1.298414        -1.752422
 H        -2.954464        -2.564066        -1.104677
