19
Iteration:  2598
 C         1.559595         0.567933        -0.037718
 C         0.045718         0.212079         0.112120
 C        -1.103533         0.883083        -0.063207
 C        -2.217172        -0.231807         0.109676
 C        -1.644567        -0.976595         1.315176
 C        -0.471078        -1.195284         0.375872
 O         0.635050        -2.028370         0.718767
 C        -1.489135        -1.301869        -0.827706
 O        -1.990969        -2.687527        -1.087558
 H         1.703411         1.488963        -0.692315
 H         1.929212         0.699230         0.988576
 H         2.016889        -0.388167        -0.375971
 H        -1.300602         1.832921        -0.529328
 H        -3.247317         0.005180        -0.121569
 H        -1.476173        -0.268599         2.215292
 H        -2.271212        -1.876742         1.514195
 H         0.384267        -2.871772         0.972838
 H        -1.056752        -0.842440        -1.769818
 H        -2.099885        -2.677283        -1.993728
