19
Iteration:  3377
 C         1.519430         0.663990        -0.130388
 C         0.106733         0.182432        -0.028742
 C        -1.008204         0.713143        -0.603575
 C        -2.147657        -0.243324        -0.336350
 C        -1.833050        -0.573380         1.164267
 C        -0.510767        -1.097997         0.535851
 O         0.448447        -2.005025         1.201106
 C        -1.334044        -1.546969        -0.750633
 O        -1.894559        -2.841143        -0.799893
 H         1.814516         1.663638        -0.469523
 H         2.146485         0.761411         0.826378
 H         2.273528         0.014205        -0.637400
 H        -1.051384         1.629853        -1.042082
 H        -3.231762        -0.060717        -0.477191
 H        -1.651767         0.247542         1.837523
 H        -2.449437        -1.355000         1.659293
 H        -0.094583        -2.899537         1.369634
 H        -0.765303        -1.465779        -1.712878
 H        -2.318686        -3.038984         0.142121
