19
Iteration:  3547
 C         1.491270         0.651974         0.041383
 C         0.090880         0.179822        -0.055876
 C        -0.976918         0.678237        -0.758158
 C        -2.005751        -0.317881        -0.503677
 C        -1.890702        -0.571037         1.062325
 C        -0.489872        -1.106301         0.505905
 O         0.355954        -1.951621         1.175618
 C        -1.204213        -1.691277        -0.747999
 O        -1.993307        -2.722167        -0.445195
 H         1.812122         1.264172        -0.803822
 H         1.788445         1.222797         0.891697
 H         2.251024        -0.128856         0.083703
 H        -0.931098         1.229378        -1.652679
 H        -2.954437        -0.277382        -0.995000
 H        -1.844639         0.306320         1.661645
 H        -2.531597        -1.354926         1.611391
 H         0.627983        -1.517672         2.062716
 H        -0.737362        -1.676147        -1.674015
 H        -2.421576        -3.038025        -1.262819
