19
Iteration:  3104charge 0 multiplicity 1
 C         1.454930         0.682549        -0.050966
 C         0.099498         0.226918         0.045669
 C        -1.043367         0.803545        -0.450212
 C        -2.143888        -0.224652        -0.319552
 C        -1.801137        -0.821593         1.223142
 C        -0.449758        -1.157593         0.484421
 O         0.489833        -2.185941         0.927348
 C        -1.325138        -1.378115        -0.788460
 O        -1.903660        -2.675557        -0.632224
 H         1.688286         1.040578        -0.993697
 H         1.665628         1.538824         0.597251
 H         2.275303         0.007568         0.171767
 H        -0.985121         1.746760        -0.880064
 H        -3.106374         0.037327        -0.650451
 H        -1.726923        -0.138795         2.031534
 H        -2.472807        -1.751545         1.454669
 H        -0.019664        -2.863337         1.252153
 H        -0.869127        -1.221258        -1.825617
 H        -2.274551        -3.051332        -1.476407
