19
Iteration:   377
 C         1.527413         0.643027        -0.096256
 C         0.018278         0.243112         0.072192
 C        -1.050666         0.944606        -0.049573
 C        -2.161294        -0.147053        -0.047593
 C        -1.748428        -0.996517         1.213155
 C        -0.451275        -1.155057         0.370054
 O         0.461171        -2.255844         0.509886
 C        -1.356848        -1.340840        -0.788680
 O        -1.954634        -2.658996        -0.759888
 H         2.175591         0.107441         0.728474
 H         1.872138         0.439321        -1.084193
 H         1.516955         1.699756         0.137697
 H        -1.219173         2.087381        -0.096821
 H        -3.207186         0.032564        -0.331233
 H        -1.706049        -0.569247         2.189627
 H        -2.453429        -1.803738         1.247924
 H         0.779676        -2.156089         1.461025
 H        -0.949257        -1.084592        -1.767588
 H        -1.204201        -3.278876        -0.457423
