19
Iteration:   371charge 0 multiplicity 1
 C         1.510698         0.666180        -0.059793
 C         0.059970         0.232628         0.099033
 C        -1.051756         0.950482        -0.067837
 C        -2.152580        -0.152530         0.002225
 C        -1.789864        -0.986006         1.192515
 C        -0.445985        -1.180629         0.342119
 O         0.437861        -2.242572         0.484252
 C        -1.391331        -1.358400        -0.824872
 O        -1.947414        -2.661308        -0.736931
 H         2.186118         0.341337         0.655887
 H         2.053822         0.308279        -1.002426
 H         1.720151         1.770872         0.058045
 H        -1.177473         1.945024        -0.280295
 H        -3.174272         0.178302        -0.179252
 H        -1.771541        -0.595971         2.280065
 H        -2.346291        -1.968026         1.200660
 H         0.861859        -2.041807         1.371503
 H        -0.850700        -1.203926        -1.793849
 H        -1.188042        -3.201152        -0.360636
