19
Iteration:  3571charge 0 multiplicity 1
 C         1.529103         0.562540         0.034690
 C         0.101406         0.173030        -0.125423
 C        -0.972079         0.739078        -0.856174
 C        -2.027735        -0.251704        -0.537309
 C        -1.902841        -0.554412         1.020444
 C        -0.437214        -1.046854         0.582725
 O         0.467806        -1.884383         1.264945
 C        -1.336423        -1.658502        -0.707582
 O        -2.031605        -2.883475        -0.474021
 H         1.772265         1.615743        -0.155652
 H         1.966312         0.362719         0.979765
 H         2.303409         0.067495        -0.620005
 H        -1.096882         1.819757        -1.200501
 H        -3.106390         0.005619        -0.733661
 H        -2.073056         0.160205         1.834769
 H        -2.680384        -1.387627         1.178632
 H         0.311758        -1.777421         2.283516
 H        -0.807551        -1.658879        -1.624119
 H        -1.977534        -3.348717        -1.401041
