19
Iteration:  1746charge 0 multiplicity 1
 C         1.487705         0.690420         0.221566
 C         0.086153         0.262920         0.015128
 C        -1.028804         0.742030        -0.633253
 C        -2.079147        -0.261177        -0.346551
 C        -1.721118        -0.659714         1.175758
 C        -0.458267        -1.178937         0.409187
 O         0.536636        -2.140212         0.732435
 C        -1.403172        -1.546195        -0.735969
 O        -2.082638        -2.673905        -0.572229
 H         1.726509         1.712638         0.664444
 H         1.990947         0.091282         0.921714
 H         2.041484         0.583655        -0.718265
 H        -1.168209         1.670739        -1.236793
 H        -3.084078         0.111190        -0.621657
 H        -1.713716         0.180255         1.923172
 H        -2.447059        -1.410626         1.491187
 H         0.379639        -2.346421         1.636063
 H        -0.888086        -1.652723        -1.690864
 H        -1.663516        -3.373624        -0.091323
