19
Iteration:  3262charge 0 multiplicity 1
 C         1.606022         0.762514         0.092648
 C         0.115919         0.218878        -0.133438
 C        -1.089451         0.701220        -0.593684
 C        -2.156662        -0.308076        -0.246703
 C        -1.748900        -0.681649         1.203704
 C        -0.409307        -1.107992         0.505719
 O         0.532813        -2.092419         0.993064
 C        -1.412201        -1.507055        -0.790255
 O        -2.101754        -2.695012        -0.705238
 H         2.154917        -0.038245         0.650644
 H         2.195440         0.850558        -0.825642
 H         1.520504         1.715694         0.601763
 H        -1.131788         1.410848        -1.343400
 H        -3.239099        -0.233869        -0.462029
 H        -1.745274         0.145868         1.995921
 H        -2.218265        -1.488096         1.716907
 H        -0.117285        -2.840932         1.209438
 H        -0.814830        -1.328539        -1.767961
 H        -1.329254        -3.390024        -0.714929
