19
Iteration:  4350
 C         1.649179         0.485850        -0.183858
 C         0.196847         0.080412        -0.244608
 C        -0.687883         0.445544        -1.199146
 C        -1.960405        -0.354196        -0.759578
 C        -2.030794        -0.309760         0.731012
 C        -0.608929        -0.905115         0.636665
 O        -0.027696        -1.424899         1.784049
 C        -1.231723        -1.809106        -0.502435
 O        -1.885952        -3.010092        -0.195408
 H         2.279539        -0.118727         0.433441
 H         1.932571         0.555152        -1.239110
 H         1.728624         1.503058         0.171213
 H        -0.447203         0.738172        -2.271920
 H        -2.950784        -0.297183        -1.233876
 H        -2.145253         0.600846         1.338775
 H        -2.802624        -1.058750         0.920130
 H         0.470110        -2.276153         1.411472
 H        -0.610018        -2.050712        -1.331410
 H        -1.723403        -3.093623         0.802048
