19
Iteration:  1794charge 0 multiplicity 1
 C         1.512531         0.618090         0.074019
 C         0.069316         0.168961        -0.110382
 C        -1.014557         0.757545        -0.576002
 C        -2.140690        -0.246564        -0.154960
 C        -1.641720        -0.754226         1.163968
 C        -0.423684        -1.164404         0.433404
 O         0.525314        -1.950344         1.058965
 C        -1.417359        -1.458201        -0.912313
 O        -2.117286        -2.724546        -0.684323
 H         1.782430         1.575647        -0.397897
 H         1.720656         0.958367         1.105340
 H         2.297256        -0.133440        -0.155486
 H        -1.293617         1.717303        -0.964991
 H        -3.176771        -0.006643        -0.356364
 H        -1.372400        -0.046007         1.957620
 H        -2.192020        -1.610986         1.682642
 H         0.037432        -2.767403         1.433652
 H        -1.054541        -1.345549        -1.983313
 H        -1.565588        -3.457917        -1.205559
