19
Iteration:   712charge 0 multiplicity 1
 C         1.401345         0.598430        -0.091549
 C         0.051827         0.243213         0.076784
 C        -1.123310         0.919461        -0.238439
 C        -2.111220        -0.185042        -0.127625
 C        -1.715377        -0.912781         1.194242
 C        -0.414596        -1.117582         0.404111
 O         0.487907        -2.289156         0.674523
 C        -1.366031        -1.302583        -0.814995
 O        -1.966122        -2.648619        -0.678249
 H         2.134442         0.477712         0.626081
 H         1.852827         0.022161        -0.956669
 H         1.650156         1.605543        -0.352152
 H        -1.063185         2.003539        -0.465012
 H        -3.160502        -0.003809        -0.187156
 H        -1.805696        -0.284735         2.104460
 H        -2.152626        -1.995370         1.098533
 H         0.770875        -2.319288         1.593237
 H        -1.033230        -1.159917        -1.822638
 H        -1.180074        -3.125558        -0.293933
