19
Iteration:  1386charge 0 multiplicity 1
 C         1.548861         0.557038        -0.200936
 C         0.022963         0.233361         0.087251
 C        -1.049339         0.839229        -0.529092
 C        -2.035752        -0.209788        -0.466352
 C        -2.009857        -0.666176         1.103160
 C        -0.523798        -1.192993         0.615804
 O         0.536807        -1.933321         1.212152
 C        -1.211387        -1.565337        -0.699576
 O        -2.000768        -2.767799        -0.717556
 H         1.910788         1.664567        -0.037229
 H         2.120544        -0.039039         0.457089
 H         1.770336         0.293351        -1.302452
 H        -0.894087         1.579215        -1.279763
 H        -2.943217         0.061020        -0.979877
 H        -1.948555         0.066070         1.944795
 H        -2.670304        -1.464612         1.535502
 H         0.710298        -2.705848         0.564778
 H        -0.614824        -1.696196        -1.589664
 H        -1.881302        -3.342168        -0.012556
