19
Iteration:  2334
 C         1.546372         0.532907        -0.089507
 C        -0.035166         0.277784         0.042308
 C        -1.185334         0.920485        -0.206619
 C        -2.155572        -0.165199         0.079269
 C        -1.620367        -0.946291         1.308193
 C        -0.429777        -1.152285         0.403449
 O         0.535670        -2.111387         0.832485
 C        -1.417072        -1.332055        -0.819089
 O        -1.883881        -2.687664        -0.968226
 H         1.943976         1.126966         0.796749
 H         1.971170        -0.502464        -0.028043
 H         1.876737         0.969821        -1.036075
 H        -1.378005         1.906474        -0.635741
 H        -3.233616         0.001644        -0.053187
 H        -1.406914        -0.369489         2.253955
 H        -2.329477        -1.857426         1.456636
 H         0.171361        -3.040921         0.546896
 H        -1.194342        -0.949955        -1.817196
 H        -2.238523        -2.982203        -1.802948
