19
Iteration:   306charge 0 multiplicity 1
 C         1.456197         0.777785         0.227252
 C         0.121977         0.171004        -0.120882
 C        -1.130623         0.840833        -0.249645
 C        -2.117947        -0.291162         0.031583
 C        -1.476335        -0.875061         1.324248
 C        -0.370651        -1.266570         0.286705
 O         0.619596        -2.236998         0.597119
 C        -1.489027        -1.389408        -0.792074
 O        -2.278850        -2.546046        -0.931983
 H         1.175023         1.499281         0.970910
 H         2.004269        -0.120791         0.636703
 H         1.904014         1.322412        -0.663381
 H        -1.407055         1.905164        -0.485193
 H        -3.197328        -0.155348        -0.007155
 H        -1.262219        -0.202280         2.219817
 H        -1.938882        -1.792920         1.742989
 H         1.088760        -2.051336         1.457631
 H        -1.082187        -1.043858        -1.785990
 H        -1.626432        -3.310951        -1.115619
