19
Iteration:    33charge 0 multiplicity 1
 C         1.489361         0.784348         0.227074
 C         0.124800         0.329873         0.191706
 C        -1.096678         0.953365         0.072913
 C        -2.058276        -0.228782        -0.069748
 C        -1.716510        -1.038669         1.156257
 C        -0.356020        -1.233628         0.203644
 O         0.504194        -2.298337         0.265779
 C        -1.476493        -1.372253        -0.893753
 O        -2.068746        -2.611885        -0.643820
 H         2.139653         0.110983         0.660292
 H         1.959644         0.855345        -0.762597
 H         1.733373         1.728741         0.718491
 H        -1.343929         1.926394        -0.301013
 H        -3.061861         0.138688        -0.244155
 H        -1.617020        -0.374583         2.026730
 H        -2.268992        -1.947992         1.434953
 H         0.482120        -2.657922         1.221813
 H        -1.212297        -1.152207        -1.922450
 H        -1.662074        -3.262297        -1.331679
