19
Iteration:  2453
 C         1.468539         0.620876         0.207775
 C         0.020474         0.210473        -0.017618
 C        -1.102019         0.868221        -0.303427
 C        -2.129831        -0.189195         0.013933
 C        -1.591592        -0.935389         1.320693
 C        -0.395134        -1.273903         0.383393
 O         0.604909        -2.138206         0.529588
 C        -1.435449        -1.379646        -0.809161
 O        -2.083655        -2.637174        -0.863184
 H         1.616187         1.627033        -0.241917
 H         1.567447         0.731569         1.317743
 H         2.151819        -0.166616        -0.080792
 H        -1.258886         1.943466        -0.664363
 H        -3.190818         0.133934         0.020881
 H        -1.503413        -0.191146         2.125396
 H        -2.061735        -1.914972         1.610154
 H         1.013446        -1.905982         1.378871
 H        -1.058236        -1.058179        -1.831581
 H        -2.593178        -2.723436        -1.737219
