19
Iteration:  3524charge 0 multiplicity 1
 C         1.517460         0.733298         0.031708
 C         0.139925         0.259433        -0.103276
 C        -0.921982         0.722822        -0.780496
 C        -2.102483        -0.260900        -0.504513
 C        -1.846972        -0.576091         0.997011
 C        -0.477529        -1.097655         0.505533
 O         0.303466        -2.084203         1.229357
 C        -1.265924        -1.647082        -0.730409
 O        -1.965301        -2.867110        -0.436119
 H         2.137605         0.696558        -0.863233
 H         1.690296         1.748397         0.392003
 H         2.114553         0.202175         0.752392
 H        -1.033468         1.690593        -1.166783
 H        -3.047119        -0.237348        -0.969949
 H        -1.881206         0.297440         1.651286
 H        -2.354633        -1.415483         1.515877
 H         0.902789        -1.709707         1.822690
 H        -0.713731        -1.623314        -1.643239
 H        -2.698899        -2.911821        -1.035960
