19
Iteration:  2580
 C         1.473884         0.598441        -0.013920
 C         0.026929         0.174923         0.063932
 C        -1.118515         0.762673        -0.161459
 C        -2.176474        -0.237662         0.066722
 C        -1.666785        -0.876251         1.463805
 C        -0.395868        -1.221672         0.447165
 O         0.683037        -2.099892         0.808906
 C        -1.458313        -1.375325        -0.868879
 O        -2.022962        -2.574868        -1.179466
 H         1.484876         1.219762        -0.842708
 H         1.827703         1.082347         0.894193
 H         2.137472        -0.240026        -0.329589
 H        -1.328763         1.930356        -0.140288
 H        -3.223989         0.057576         0.058287
 H        -1.509993        -0.037986         2.230825
 H        -2.187241        -1.752458         1.819793
 H         0.509894        -2.761690         0.217972
 H        -1.234699        -0.903863        -1.776642
 H        -2.207237        -2.567897        -2.052319
