19
Iteration:  1513charge 0 multiplicity 1
 C         1.529737         0.667916         0.159355
 C         0.171993         0.204868        -0.133446
 C        -0.961460         0.804038        -0.593038
 C        -2.090222        -0.277886        -0.402585
 C        -1.759505        -0.782516         1.054161
 C        -0.400360        -1.106087         0.406638
 O         0.459626        -1.965336         0.974823
 C        -1.364941        -1.634125        -0.816021
 O        -2.160696        -2.704755        -0.471572
 H         1.891444         1.036778        -0.786679
 H         1.557972         1.580355         0.835501
 H         2.104214        -0.038128         0.659324
 H        -0.955768         1.744669        -1.187814
 H        -3.118409        -0.167199        -0.737900
 H        -1.663547        -0.063162         1.821659
 H        -2.374654        -1.700221         1.296415
 H         0.203269        -2.072605         1.917337
 H        -1.190408        -1.619652        -1.889529
 H        -1.701125        -3.357500         0.037554
