19
Iteration:  4149
 C         1.577965         0.350595        -0.075643
 C         0.118089         0.180161        -0.247361
 C        -0.844340         0.456964        -1.153904
 C        -2.003275        -0.418227        -0.717476
 C        -1.892139        -0.171887         0.855584
 C        -0.599880        -0.938149         0.565672
 O         0.035259        -1.513079         1.648942
 C        -1.119384        -1.797354        -0.580592
 O        -1.873878        -2.966542        -0.166341
 H         2.026477        -0.450911        -0.625114
 H         1.990240         1.323681        -0.371303
 H         1.721143         0.073041         0.974866
 H        -1.208099         1.470349        -1.536287
 H        -2.938320        -0.495281        -1.224990
 H        -1.740975         0.951775         1.005477
 H        -2.627894        -0.631253         1.477375
 H         0.841236        -1.866433         1.348518
 H        -0.455057        -1.990439        -1.410588
 H        -2.004557        -3.513308        -0.958599
