19
Iteration:  4685
 C         1.577861         0.449889        -0.038988
 C         0.190863         0.095102        -0.433484
 C        -0.681939         0.327298        -1.390669
 C        -1.839220        -0.596138        -0.946464
 C        -1.952896        -0.155907         0.528372
 C        -0.542597        -0.901344         0.562428
 O        -0.171971        -1.303589         1.830882
 C        -1.105912        -1.926382        -0.420672
 O        -2.017904        -2.835492         0.215479
 H         1.654305         1.506803         0.121252
 H         1.976018         0.013299         0.897249
 H         2.217092         0.166715        -0.868468
 H        -0.432133         0.755820        -2.327184
 H        -2.728011        -0.719984        -1.544674
 H        -2.109146         0.933240         0.769399
 H        -2.735383        -0.765396         1.160812
 H         0.516128        -1.938851         1.748978
 H        -0.460872        -2.340859        -1.153197
 H        -1.593365        -3.741054         0.289585
