19
Iteration:   509
 C         1.539201         0.656493         0.084797
 C         0.114626         0.172544         0.015143
 C        -1.126226         0.891111        -0.293531
 C        -2.189880        -0.215903        -0.100349
 C        -1.807178        -0.840027         1.307170
 C        -0.436915        -1.172093         0.392655
 O         0.532100        -2.143961         0.571098
 C        -1.390885        -1.387429        -0.832203
 O        -1.842665        -2.709594        -0.693328
 H         2.028781         1.089492        -0.861349
 H         1.700306         1.445509         0.817716
 H         2.024481        -0.254651         0.538338
 H        -1.162189         1.886510        -0.672083
 H        -3.173184         0.115918        -0.441857
 H        -1.544325        -0.174650         2.129161
 H        -2.349010        -1.711023         1.585528
 H         0.060245        -2.984649         0.865021
 H        -1.192344        -1.074438        -1.877157
 H        -2.803869        -2.805173        -0.896955
