19
Iteration:  1567
 C         1.560154         0.569918        -0.045801
 C         0.046594         0.241331        -0.034199
 C        -1.034771         0.656899        -0.701289
 C        -2.105320        -0.202764        -0.251528
 C        -1.791446        -0.580649         1.285537
 C        -0.524497        -1.091360         0.577949
 O         0.345082        -2.065688         1.012155
 C        -1.242011        -1.471715        -0.760069
 O        -1.922103        -2.770724        -0.726194
 H         2.073928         0.032948        -0.835806
 H         1.689176         1.740510        -0.173899
 H         2.104715         0.219622         0.831435
 H        -1.158165         1.420346        -1.554055
 H        -3.135350        -0.120067        -0.609640
 H        -1.734166         0.280786         1.865193
 H        -2.418410        -1.398917         1.728269
 H         0.101339        -2.373049         1.874595
 H        -0.870652        -1.272284        -1.745703
 H        -1.288217        -3.471310        -0.678634
