19
Iteration:  4170
 C         1.567157         0.419175        -0.072789
 C         0.165904         0.026541        -0.319709
 C        -0.814136         0.542002        -1.118497
 C        -2.058428        -0.388267        -0.752144
 C        -1.966387        -0.262605         0.799305
 C        -0.560456        -0.904332         0.625555
 O         0.167248        -1.505433         1.707074
 C        -1.234492        -1.771689        -0.559749
 O        -1.923325        -2.922839        -0.167004
 H         2.377655         0.220508        -0.770191
 H         1.625407         1.503257         0.088238
 H         1.868896        -0.018729         0.893426
 H        -0.698324         0.824861        -2.207897
 H        -2.937332        -0.371625        -1.361389
 H        -1.876319         0.821279         1.165789
 H        -2.565623        -0.895007         1.389987
 H         0.497283        -2.439019         1.351738
 H        -0.542315        -1.958055        -1.438540
 H        -1.812452        -3.616108        -0.816046
