19
Iteration:  2624charge 0 multiplicity 1
 C         1.466563         0.578384        -0.016567
 C         0.017561         0.299438         0.171317
 C        -1.120965         0.928573        -0.106991
 C        -2.157429        -0.217507         0.019344
 C        -1.706685        -1.100604         1.178092
 C        -0.406396        -1.147365         0.360489
 O         0.586475        -2.189503         0.591462
 C        -1.341989        -1.283600        -0.873094
 O        -1.972387        -2.574539        -0.796066
 H         1.579157         1.570176        -0.281035
 H         1.882967         0.247915         0.930752
 H         1.797578        -0.152319        -0.772645
 H        -1.455703         2.016818        -0.203955
 H        -3.139487         0.078850        -0.375963
 H        -1.556340        -0.581237         2.183641
 H        -2.329195        -1.993113         1.150278
 H         0.424814        -2.595215         1.386039
 H        -0.861422        -1.062055        -1.785428
 H        -2.128470        -2.853303        -1.631358
