19
Iteration:  3267
 C         1.628609         0.730672         0.091449
 C         0.116128         0.195536        -0.120000
 C        -1.077812         0.723445        -0.567909
 C        -2.116903        -0.295785        -0.243076
 C        -1.776756        -0.661036         1.210308
 C        -0.423993        -1.066735         0.506135
 O         0.536040        -2.088594         0.967707
 C        -1.431071        -1.476921        -0.798267
 O        -2.088581        -2.755282        -0.689764
 H         2.157587        -0.067397         0.590207
 H         2.075924         1.037898        -0.901192
 H         1.429986         1.677413         0.683105
 H        -1.164217         1.568767        -1.388813
 H        -3.152608        -0.387189        -0.562953
 H        -1.764835         0.188210         1.827455
 H        -2.414921        -1.509568         1.664754
 H         0.047984        -2.881752         1.318388
 H        -0.875847        -1.321134        -1.697729
 H        -1.476638        -3.456082        -0.800005
