19
Iteration:  2522charge 0 multiplicity 1
 C         1.543010         0.812300         0.001445
 C         0.134653         0.195151         0.093950
 C        -1.037203         0.872639        -0.011631
 C        -2.161300        -0.195791        -0.078646
 C        -1.712492        -1.075348         1.134922
 C        -0.388381        -1.186902         0.335578
 O         0.464013        -2.255140         0.746986
 C        -1.479845        -1.365316        -0.909715
 O        -1.986966        -2.631496        -0.770762
 H         1.580184         1.485798        -0.895493
 H         1.585856         1.451410         0.864496
 H         2.369717         0.097356         0.084442
 H        -1.133599         1.880045        -0.201342
 H        -3.190892         0.150616        -0.188102
 H        -1.657178        -0.475934         2.129221
 H        -2.317998        -2.016633         1.276642
 H         1.356503        -2.261344         0.201742
 H        -1.365291        -0.999168        -1.937109
 H        -2.599087        -2.682652        -1.618254
