19
Iteration:  2472
 C         1.546711         0.628335         0.252930
 C         0.071640         0.261048         0.013913
 C        -1.155785         0.783817        -0.293131
 C        -2.203087        -0.269411         0.043010
 C        -1.657006        -0.870198         1.352447
 C        -0.407680        -1.144135         0.332378
 O         0.556442        -2.215139         0.492800
 C        -1.457841        -1.355351        -0.830273
 O        -1.997740        -2.618129        -0.840234
 H         1.882852         1.312124        -0.503779
 H         1.704803         0.954226         1.338725
 H         2.120394        -0.341151         0.126996
 H        -1.435822         1.680794        -0.889476
 H        -3.228929        -0.157127        -0.239842
 H        -1.417331        -0.316953         2.214001
 H        -2.196205        -1.697739         1.710480
 H         1.346823        -1.827371         0.768698
 H        -0.925754        -0.928713        -1.721029
 H        -2.594410        -2.626099        -1.589822
