19
Iteration:  2282
 C         1.533655         0.719846        -0.039162
 C         0.094794         0.290092         0.217219
 C        -1.102980         0.924483        -0.152840
 C        -2.179908        -0.232743        -0.118954
 C        -1.745081        -0.930003         1.218442
 C        -0.410605        -1.156981         0.393066
 O         0.637503        -2.174788         0.680054
 C        -1.304480        -1.502636        -0.866091
 O        -2.085239        -2.701572        -0.832508
 H         2.173523         0.490888         0.882665
 H         1.804430         0.112092        -0.865394
 H         1.545177         1.778230        -0.316310
 H        -1.230755         1.965953        -0.639417
 H        -3.217971         0.238901        -0.186616
 H        -1.558318        -0.307765         2.084587
 H        -2.269137        -1.833447         1.585924
 H         0.255402        -2.668208         1.519993
 H        -0.972268        -1.366423        -1.902286
 H        -2.940341        -2.603110        -1.426473
