19
Iteration:  2838charge 0 multiplicity 1
 C         1.451350         0.728489        -0.032578
 C         0.098949         0.156768         0.033623
 C        -1.068877         0.886776        -0.199282
 C        -2.163692        -0.132385        -0.022476
 C        -1.764772        -0.901662         1.225495
 C        -0.415934        -1.224929         0.483843
 O         0.542365        -2.207171         0.890253
 C        -1.357986        -1.452837        -0.845611
 O        -2.019936        -2.663351        -1.075546
 H         1.889069         0.728495        -1.050402
 H         1.560175         1.738947         0.358936
 H         2.129050         0.047985         0.513765
 H        -1.263302         1.792499        -0.738835
 H        -3.194607         0.152742        -0.177470
 H        -1.627771        -0.414914         2.237776
 H        -2.255801        -1.826084         1.308738
 H         1.404553        -1.909393         1.008880
 H        -0.876813        -1.061480        -1.780610
 H        -2.433859        -2.916654        -0.319574
