19
Iteration:  2245charge 0 multiplicity 1
 C         1.483025         0.741634         0.172190
 C         0.100707         0.139988        -0.103299
 C        -1.085560         0.788861        -0.408766
 C        -2.148132        -0.187426        -0.035655
 C        -1.630920        -0.962937         1.329531
 C        -0.376181        -1.183419         0.324529
 O         0.548033        -2.084836         0.751573
 C        -1.481932        -1.428317        -0.873045
 O        -2.040479        -2.632319        -0.748763
 H         2.221403         0.130336         0.695088
 H         2.023948         1.150000        -0.781911
 H         1.385651         1.700662         0.743399
 H        -1.036007         1.841450        -0.255422
 H        -3.166403         0.070268        -0.142298
 H        -1.285123        -0.219428         2.127787
 H        -2.134410        -1.935758         1.727012
 H         0.111564        -3.022379         0.598529
 H        -1.123105        -1.201795        -1.886528
 H        -2.407480        -2.806364        -1.619868
