19
Iteration:  2714charge 0 multiplicity 1
 C         1.407205         0.687950         0.257948
 C         0.086675         0.242296         0.001228
 C        -1.146424         0.845773        -0.270445
 C        -2.112264        -0.296464        -0.051606
 C        -1.494920        -0.941043         1.275893
 C        -0.383712        -1.246498         0.310107
 O         0.577772        -2.181791         0.723143
 C        -1.377864        -1.436930        -0.891611
 O        -2.264901        -2.496872        -0.922159
 H         1.487676         1.134087         1.268313
 H         2.265375         0.023237         0.094089
 H         1.582555         1.552154        -0.336083
 H        -1.305781         1.897254        -0.437400
 H        -3.200869        -0.224953        -0.306678
 H        -1.208830        -0.306687         2.069895
 H        -2.088241        -1.871232         1.610118
 H         1.427029        -1.933530         0.431126
 H        -0.882894        -1.181943        -1.800131
 H        -1.798085        -3.357270        -0.877190
