19
Iteration:   150charge 0 multiplicity 1
 C         1.464835         0.671864        -0.167632
 C         0.038910         0.326534         0.272084
 C        -1.078740         0.904323        -0.041438
 C        -2.128394        -0.227579         0.013983
 C        -1.757550        -1.087640         1.269531
 C        -0.376211        -1.230671         0.448226
 O         0.588365        -2.162742         0.643282
 C        -1.327834        -1.303542        -0.852270
 O        -2.052859        -2.609300        -0.918306
 H         1.583916         0.815715        -1.280298
 H         2.061741         1.602336         0.162702
 H         2.304020        -0.110647         0.051968
 H        -1.212695         1.952439        -0.201461
 H        -3.119006         0.027621        -0.361276
 H        -1.835360        -0.649733         2.297123
 H        -2.142700        -2.164714         1.189302
 H         0.254637        -2.973560         1.039155
 H        -0.953315        -0.993637        -1.874081
 H        -2.485177        -2.654286        -1.806115
