19
Iteration:  3156charge 0 multiplicity 1
 C         1.539368         0.554570         0.052844
 C         0.072271         0.268643        -0.091477
 C        -1.080808         0.849830        -0.442619
 C        -2.179069        -0.269235        -0.215310
 C        -1.785978        -0.655802         1.215136
 C        -0.500317        -1.162492         0.418465
 O         0.455875        -2.043154         1.005367
 C        -1.393830        -1.473215        -0.815659
 O        -1.791997        -2.781763        -0.691942
 H         1.797751         1.628287        -0.085618
 H         2.057752         0.005846         0.838334
 H         2.098010         0.152259        -0.854655
 H        -1.274078         1.812560        -0.711937
 H        -3.231635        -0.156204        -0.476699
 H        -1.630574         0.264278         1.778936
 H        -2.310336        -1.511561         1.671032
 H         0.302219        -2.942585         0.650463
 H        -0.932465        -1.204900        -1.749542
 H        -2.511440        -3.060308        -1.399607
