19
Iteration:  2096
 C         1.469376         0.604988        -0.159038
 C         0.117995         0.222179         0.076648
 C        -1.029569         0.893277        -0.333374
 C        -2.147603        -0.173439        -0.078941
 C        -1.759819        -0.911434         1.277586
 C        -0.424304        -1.168837         0.561670
 O         0.557188        -2.018861         0.969520
 C        -1.374551        -1.454234        -0.807671
 O        -2.027126        -2.721089        -0.893745
 H         1.542740         1.578795        -0.769789
 H         2.080773         0.701035         0.707263
 H         1.988837        -0.122186        -0.791632
 H        -1.049805         1.833134        -0.979009
 H        -3.172063        -0.023955        -0.467620
 H        -1.647201        -0.436946         2.223011
 H        -2.368365        -1.780114         1.514862
 H         0.275219        -2.966613         0.766033
 H        -0.992236        -1.105014        -1.803622
 H        -2.312121        -2.849977        -1.917627
