19
Iteration:   505charge 0 multiplicity 1
 C         1.575076         0.663754         0.067666
 C         0.114688         0.188322         0.012034
 C        -1.152059         0.887664        -0.266214
 C        -2.197988        -0.206128        -0.125784
 C        -1.811832        -0.864858         1.281406
 C        -0.401924        -1.183989         0.408050
 O         0.566442        -2.154467         0.598851
 C        -1.393095        -1.398676        -0.815744
 O        -1.882958        -2.684455        -0.697352
 H         1.956318         0.973862        -0.929449
 H         1.634442         1.495159         0.800198
 H         1.919467        -0.234122         0.553019
 H        -1.184614         1.910528        -0.732587
 H        -3.225924         0.090075        -0.378934
 H        -1.589199        -0.197452         2.094412
 H        -2.436861        -1.780200         1.440356
 H         0.157029        -2.953079         0.874659
 H        -1.089594        -1.072802        -1.857281
 H        -2.816671        -2.709677        -0.908508
