19
Iteration:  4332
 C         1.696870         0.503096        -0.162937
 C         0.204973         0.151436        -0.235669
 C        -0.741041         0.363808        -1.214304
 C        -1.987119        -0.445841        -0.843066
 C        -2.045222        -0.371269         0.846682
 C        -0.546062        -0.905156         0.593072
 O        -0.042441        -1.459895         1.780236
 C        -1.215059        -1.796754        -0.644304
 O        -1.956480        -2.938996        -0.144650
 H         1.977440         0.192022         0.903518
 H         2.319062         0.125832        -0.984564
 H         1.982476         1.570368        -0.109264
 H        -0.800100         1.255824        -1.834795
 H        -2.714453        -0.271208        -1.612417
 H        -2.211507         0.687620         1.297465
 H        -2.557070        -1.142655         1.370911
 H         0.894651        -1.889323         1.476184
 H        -0.538023        -2.121080        -1.458961
 H        -1.756457        -2.877896         0.858824
