19
Iteration:  2093charge 0 multiplicity 1
 C         1.496425         0.605788        -0.175524
 C         0.102770         0.217938         0.080234
 C        -1.034159         0.891910        -0.296003
 C        -2.146369        -0.172148        -0.104352
 C        -1.742814        -0.941516         1.249684
 C        -0.444894        -1.152340         0.561200
 O         0.550267        -2.004875         0.965353
 C        -1.381212        -1.446235        -0.811169
 O        -2.029047        -2.731448        -0.890298
 H         1.621856         1.575657        -0.653374
 H         2.185565         0.665228         0.715449
 H         2.043961        -0.068806        -0.836405
 H        -1.022540         1.820164        -0.964491
 H        -3.179076        -0.049457        -0.391830
 H        -1.656361        -0.343444         2.213481
 H        -2.441327        -1.759141         1.539681
 H         0.232865        -2.931679         0.777060
 H        -1.003151        -1.053233        -1.770127
 H        -2.274498        -2.976222        -1.745162
