19
Iteration:  1103
 C         1.505873         0.530592        -0.097165
 C         0.008013         0.180082        -0.113072
 C        -1.165390         0.776638        -0.535910
 C        -2.090517        -0.290499        -0.207746
 C        -1.716637        -0.657812         1.277336
 C        -0.415999        -1.126972         0.569009
 O         0.537984        -2.001153         1.056019
 C        -1.252253        -1.534122        -0.679181
 O        -2.095814        -2.641886        -0.950685
 H         2.195497        -0.352685        -0.311674
 H         1.917989         1.300748        -0.677942
 H         1.727110         0.820349         1.005196
 H        -1.255368         1.654596        -1.132065
 H        -3.144666        -0.082772        -0.429121
 H        -1.664317         0.042986         2.114182
 H        -2.225576        -1.580634         1.603527
 H         0.508122        -2.102734         2.071156
 H        -0.798084        -1.286069        -1.650517
 H        -1.776780        -3.520114        -0.723918
