19
Iteration:  3949
 C         1.569979         0.672959        -0.029158
 C         0.238957         0.145553        -0.229489
 C        -0.797344         0.457534        -1.093318
 C        -2.022145        -0.324013        -0.696441
 C        -1.852638        -0.299052         0.885468
 C        -0.512239        -0.976206         0.570039
 O         0.092180        -1.752783         1.582241
 C        -1.302760        -1.788357        -0.682368
 O        -2.035276        -2.968474        -0.255738
 H         1.764077         1.276405        -0.952750
 H         1.789815         1.330221         0.856441
 H         2.332526        -0.076464         0.011040
 H        -0.771158         1.372405        -1.655339
 H        -3.061457        -0.095203        -1.119948
 H        -1.792010         0.554815         1.531149
 H        -2.652803        -1.008732         1.420632
 H         1.010003        -1.923341         1.225494
 H        -0.809408        -2.071008        -1.557680
 H        -1.557176        -3.349105         0.463271
