19
Iteration:  4909charge 0 multiplicity 1
 C         1.611196         0.432805        -0.129923
 C         0.178863         0.036905        -0.382881
 C        -0.556170         0.092216        -1.432580
 C        -1.802964        -0.691585        -0.996418
 C        -2.058262        -0.125118         0.472634
 C        -0.726619        -0.789957         0.649953
 O        -0.009132        -1.131467         1.968734
 C        -1.099523        -1.900968        -0.318877
 O        -1.968285        -2.935953         0.099489
 H         1.880398         1.333579        -0.732156
 H         1.916944         0.623851         0.891012
 H         2.145734        -0.370013        -0.621899
 H        -0.343656         0.454787        -2.486381
 H        -2.697999        -0.919808        -1.635594
 H        -1.975856         1.041418         0.439165
 H        -2.983083        -0.580798         1.068440
 H        -0.649188        -0.831484         2.678114
 H        -0.171107        -2.252411        -0.718816
 H        -3.002648        -2.928243        -0.151665
