19
Iteration:  2834charge 0 multiplicity 1
 C         1.442340         0.721516        -0.016454
 C         0.107558         0.131383         0.038743
 C        -1.024667         0.868322        -0.239186
 C        -2.188157        -0.129149         0.004046
 C        -1.756225        -0.900372         1.243308
 C        -0.403318        -1.206971         0.473769
 O         0.503354        -2.200179         0.875833
 C        -1.405745        -1.438736        -0.842077
 O        -1.969755        -2.669910        -1.090176
 H         1.910277         0.715582        -1.009992
 H         1.538182         1.776019         0.198604
 H         2.146376         0.188498         0.585660
 H        -1.278791         1.933344        -0.668239
 H        -3.234545         0.189959        -0.088427
 H        -1.589906        -0.427198         2.189610
 H        -2.338355        -1.894692         1.303231
 H         1.477551        -1.915153         1.002380
 H        -0.957648        -1.117069        -1.741205
 H        -2.433332        -2.954487        -0.177313
