19
Iteration:   829
 C         1.528359         0.645977        -0.012130
 C         0.080801         0.253361         0.072682
 C        -1.040044         0.932384        -0.282830
 C        -2.133751        -0.162380        -0.178989
 C        -1.770227        -0.813841         1.162702
 C        -0.528056        -1.186091         0.360440
 O         0.575658        -2.082287         0.776934
 C        -1.377176        -1.479533        -0.838124
 O        -1.974292        -2.812316        -0.561620
 H         2.165773         0.253850        -0.822285
 H         1.777688         1.676704        -0.260887
 H         2.099865         0.416268         0.937963
 H        -0.981922         1.848703        -0.861130
 H        -3.135097         0.075298        -0.473749
 H        -1.633905        -0.106384         1.898671
 H        -2.418944        -1.643703         1.368601
 H         0.309509        -2.961342         0.325343
 H        -0.979607        -1.503181        -1.867225
 H        -2.897689        -2.886835        -0.962090
