19
Iteration:  2385charge 0 multiplicity 1
 C         1.398580         0.742814        -0.033966
 C         0.088414         0.235269         0.103941
 C        -1.075784         0.912936        -0.280050
 C        -2.100873        -0.173789        -0.002713
 C        -1.683296        -0.960073         1.272108
 C        -0.418620        -1.209228         0.438156
 O         0.583857        -2.290003         0.728384
 C        -1.403548        -1.331733        -0.762835
 O        -2.054073        -2.619336        -0.842577
 H         1.482301         1.672217         0.451680
 H         2.150586         0.024126         0.427362
 H         1.651288         0.773106        -1.110981
 H        -1.196745         1.920882        -0.574884
 H        -3.112308         0.088394        -0.203622
 H        -1.687330        -0.343154         2.148056
 H        -2.199387        -1.885758         1.309415
 H         0.491499        -2.919897         0.021657
 H        -0.782351        -1.236631        -1.689561
 H        -1.891490        -3.003604        -1.638350
