19
Iteration:  4387
 C         1.635039         0.429798        -0.124434
 C         0.090007         0.129113        -0.241659
 C        -0.779967         0.382134        -1.268222
 C        -1.957875        -0.518113        -0.741146
 C        -1.927833        -0.145173         0.736653
 C        -0.586269        -0.918611         0.627488
 O        -0.063532        -1.435126         1.766686
 C        -1.177122        -1.829645        -0.532963
 O        -1.807172        -2.977115        -0.164470
 H         2.260970        -0.295594        -0.704140
 H         2.024742         1.332863        -0.592545
 H         1.955377         0.459897         0.906301
 H        -0.794763         1.185727        -1.953877
 H        -2.865508        -0.631218        -1.329772
 H        -1.982183         0.968458         0.977378
 H        -2.678487        -0.646376         1.317509
 H         0.705527        -2.079642         1.536557
 H        -0.542826        -1.869471        -1.414848
 H        -2.671754        -3.042911         0.308878
