19
Iteration:  3160
 C         1.522540         0.534721         0.053548
 C         0.064819         0.286158        -0.082742
 C        -1.098945         0.810184        -0.446872
 C        -2.187806        -0.252921        -0.198765
 C        -1.777268        -0.653134         1.188987
 C        -0.464089        -1.178138         0.418409
 O         0.467302        -2.036135         1.002348
 C        -1.344755        -1.498941        -0.834435
 O        -1.821512        -2.755151        -0.682508
 H         1.722839         1.574285         0.077243
 H         2.004670        -0.072651         0.819701
 H         1.935700         0.219946        -0.904032
 H        -1.267434         1.868747        -0.891410
 H        -3.238516        -0.028483        -0.373419
 H        -1.654789         0.209247         1.830886
 H        -2.449499        -1.453449         1.650443
 H         0.374271        -2.958854         0.710689
 H        -0.891297        -1.114268        -1.748049
 H        -2.394329        -3.023676        -1.336131
