19
Iteration:  3936charge 0 multiplicity 1
 C         1.664497         0.669304        -0.077128
 C         0.171490         0.135751        -0.265467
 C        -0.867144         0.546471        -1.057496
 C        -2.006694        -0.402582        -0.598250
 C        -1.855587        -0.275752         0.900967
 C        -0.503551        -1.005533         0.579314
 O         0.066984        -1.774048         1.624158
 C        -1.318487        -1.767530        -0.673780
 O        -1.997159        -2.940008        -0.326051
 H         2.207822         1.022374        -0.978192
 H         1.501538         1.487609         0.640241
 H         2.224032        -0.109046         0.354890
 H        -0.923305         1.063533        -2.098681
 H        -2.940654        -0.227332        -1.130984
 H        -1.792154         0.792553         1.096485
 H        -2.617256        -0.941221         1.496907
 H         0.982753        -2.158278         1.399951
 H        -0.709335        -1.844042        -1.527319
 H        -1.441817        -3.329991         0.425635
