19
Iteration:  3389charge 0 multiplicity 1
 C         1.593290         0.668582        -0.095246
 C         0.134860         0.209221        -0.128248
 C        -0.993372         0.772903        -0.630024
 C        -2.089442        -0.313873        -0.289411
 C        -1.836876        -0.643877         1.220693
 C        -0.459703        -1.110360         0.542522
 O         0.357918        -1.958430         1.174998
 C        -1.300177        -1.572083        -0.735115
 O        -1.947197        -2.806950        -0.775540
 H         1.490225         1.741825        -0.238637
 H         1.970056         0.250834         0.861621
 H         1.985512         0.216500        -1.012016
 H        -1.188182         1.701249        -1.081764
 H        -3.080123        -0.122555        -0.798676
 H        -1.879303         0.234074         1.902230
 H        -2.504965        -1.442385         1.554685
 H        -0.130376        -2.644816         1.522523
 H        -0.755787        -1.461679        -1.656752
 H        -2.015084        -3.217560         0.056543
