19
Iteration:  2948
 C         1.512225         0.738276         0.031953
 C         0.048402         0.303891         0.040321
 C        -1.095203         0.902514        -0.348671
 C        -2.175231        -0.170977        -0.168370
 C        -1.751290        -0.793294         1.294133
 C        -0.450458        -1.210283         0.421722
 O         0.392738        -2.381853         0.788484
 C        -1.359645        -1.400848        -0.803407
 O        -1.891240        -2.699741        -0.865078
 H         1.755942         1.129578         0.992039
 H         2.049006        -0.151592        -0.069952
 H         1.749266         1.332757        -0.808658
 H        -1.260285         1.840464        -0.901601
 H        -3.254716         0.050098        -0.417508
 H        -1.555487        -0.036147         2.131872
 H        -2.339299        -1.654443         1.536694
 H         1.319710        -2.108196         1.137041
 H        -0.764986        -1.241631        -1.748479
 H        -1.437579        -3.161087        -0.126383
