19
Iteration:  3027
 C         1.501070         0.648002         0.119295
 C         0.083658         0.220361        -0.111077
 C        -1.095799         0.807382        -0.461021
 C        -2.145244        -0.277416        -0.196789
 C        -1.664824        -0.889571         1.330267
 C        -0.414933        -1.213056         0.458798
 O         0.623933        -1.955549         0.895562
 C        -1.326342        -1.505925        -0.768329
 O        -2.213431        -2.603261        -0.876239
 H         2.141140        -0.165100         0.287038
 H         2.012746         1.236604        -0.604234
 H         1.534407         1.199204         1.071405
 H        -1.255793         1.686446        -1.130045
 H        -3.131649        -0.073068        -0.627344
 H        -1.535372        -0.133728         2.108105
 H        -2.297435        -1.727714         1.704292
 H         0.452932        -2.680811         1.574442
 H        -0.826855        -1.375783        -1.789117
 H        -1.876031        -3.359197        -1.241663
