19
Iteration:  4670charge 0 multiplicity 1
 C         1.708371         0.497359        -0.086083
 C         0.212176         0.130683        -0.261442
 C        -0.664977         0.230602        -1.369758
 C        -1.885166        -0.652256        -0.996878
 C        -1.973685        -0.234411         0.549583
 C        -0.617185        -0.840332         0.586555
 O        -0.115274        -1.232206         1.834371
 C        -1.169730        -1.920820        -0.454936
 O        -2.068187        -2.853777         0.148606
 H         2.000692         1.533009        -0.442169
 H         1.876622         0.263611         0.948364
 H         2.394939        -0.179674        -0.643804
 H        -0.807711         1.126307        -2.057925
 H        -2.833608        -0.695306        -1.677515
 H        -1.940062         0.805321         0.798921
 H        -2.788134        -0.721575         1.128077
 H         0.762353        -1.805005         1.710341
 H        -0.379902        -2.528397        -0.987974
 H        -1.649130        -3.797936         0.054268
