19
Iteration:  3209
 C         1.610052         0.698096        -0.025959
 C         0.156835         0.228651         0.007309
 C        -1.065236         0.711379        -0.411286
 C        -2.135413        -0.209885        -0.253840
 C        -1.921066        -0.771096         1.098881
 C        -0.443830        -1.165362         0.444974
 O         0.619602        -1.967010         0.979303
 C        -1.355936        -1.544347        -0.828387
 O        -2.110204        -2.744750        -0.630631
 H         1.869937         1.207259         1.000120
 H         2.275938        -0.187683        -0.131159
 H         1.867391         1.516639        -0.774374
 H        -1.215666         1.643771        -0.802677
 H        -3.111513        -0.080571        -0.708234
 H        -1.848503         0.012142         1.893437
 H        -2.415507        -1.653311         1.476002
 H         0.097487        -2.652876         1.482375
 H        -0.748625        -1.299633        -1.793219
 H        -2.024266        -3.349744        -1.472297
