19
Iteration:   536
 C         1.477117         0.656854         0.222004
 C        -0.010561         0.244113        -0.009039
 C        -1.085712         0.878308        -0.361110
 C        -2.202552        -0.124039        -0.068924
 C        -1.541071        -0.682210         1.219398
 C        -0.430484        -1.136324         0.341215
 O         0.408910        -2.219863         0.609241
 C        -1.480222        -1.453862        -0.790391
 O        -1.778563        -2.839851        -0.691470
 H         1.918224         1.459450        -0.389107
 H         1.813114         1.007558         1.256926
 H         2.171368        -0.219927         0.070680
 H        -1.223400         1.939349        -0.723265
 H        -3.255505         0.225844        -0.074035
 H        -1.230208        -0.051667         2.113964
 H        -2.145226        -1.567289         1.683121
 H        -0.021357        -2.945581         0.050025
 H        -1.315902        -1.192733        -1.849975
 H        -2.467567        -3.164120        -1.342320
