19
Iteration:  3684charge 0 multiplicity 1
 C         1.614542         0.573933        -0.012072
 C         0.093703         0.193000        -0.266613
 C        -0.984125         0.754829        -0.836429
 C        -2.014554        -0.288595        -0.570480
 C        -1.826427        -0.540481         0.968264
 C        -0.502936        -1.075378         0.519408
 O         0.312179        -1.861078         1.424994
 C        -1.287139        -1.631533        -0.717554
 O        -1.958613        -2.870874        -0.343696
 H         2.377861        -0.237076        -0.098477
 H         1.632883         1.374392        -0.817175
 H         1.620251         1.082837         0.953424
 H        -1.074125         1.299280        -1.754387
 H        -3.033323        -0.194502        -0.896627
 H        -1.741413         0.341064         1.713226
 H        -2.424198        -1.343903         1.345642
 H        -0.163097        -2.193050         2.130211
 H        -0.591403        -1.804151        -1.571481
 H        -2.334278        -3.305241        -1.177124
