19
Iteration:   721charge 0 multiplicity 1
 C         1.484310         0.656030        -0.067120
 C         0.008011         0.280374         0.042808
 C        -1.080940         0.936478        -0.258964
 C        -2.129207        -0.161690        -0.110565
 C        -1.651916        -0.967106         1.211896
 C        -0.395804        -1.168328         0.375748
 O         0.515022        -2.259075         0.695384
 C        -1.361685        -1.409429        -0.863352
 O        -2.032160        -2.627259        -0.686257
 H         1.962747         0.202503         0.761888
 H         1.827578         0.250016        -1.073075
 H         1.447628         1.749918        -0.116560
 H        -1.271281         2.020362        -0.424475
 H        -3.178493        -0.050854        -0.353494
 H        -1.633649        -0.336185         2.092212
 H        -2.351040        -1.846481         1.423313
 H         0.532693        -2.294539         1.655694
 H        -0.945424        -1.136779        -1.829575
 H        -1.548893        -3.239233        -0.136297
