19
Iteration:  2373
 C         1.516980         0.693390        -0.056239
 C         0.032220         0.256130         0.062586
 C        -1.109470         0.889351        -0.159027
 C        -2.141123        -0.184191        -0.010713
 C        -1.720336        -0.830279         1.356439
 C        -0.446917        -1.279536         0.475688
 O         0.542337        -2.241722         0.712731
 C        -1.390793        -1.418292        -0.823594
 O        -1.977636        -2.638199        -0.899696
 H         1.666111         1.630927         0.449098
 H         2.221955        -0.082747         0.322700
 H         1.727157         0.972058        -1.115943
 H        -1.341961         1.726847        -0.745458
 H        -3.191704         0.039131        -0.072494
 H        -1.410702        -0.278064         2.220720
 H        -2.447254        -1.512625         1.666020
 H         0.584550        -2.757195        -0.089544
 H        -1.000127        -1.019602        -1.826077
 H        -1.689835        -3.028046        -1.829820
