19
Iteration:  4937
 C         1.646290         0.552273        -0.033652
 C         0.314696        -0.020968        -0.357711
 C        -0.556545        -0.009642        -1.450949
 C        -1.886452        -0.642216        -0.989388
 C        -1.987940        -0.141452         0.475182
 C        -0.588577        -0.729997         0.570632
 O        -0.152763        -1.138934         1.885764
 C        -1.217198        -1.930370        -0.382506
 O        -2.002583        -3.012236         0.146593
 H         1.503520         1.628616        -0.080765
 H         2.032577         0.202785         0.975590
 H         2.351248         0.360967        -0.871568
 H        -0.330769         0.317889        -2.395501
 H        -2.710178        -0.709665        -1.706991
 H        -2.023821         0.923545         0.532710
 H        -2.627754        -0.701733         1.089399
 H        -0.126011        -0.295185         2.474441
 H        -0.406948        -2.368405        -1.026964
 H        -2.836127        -2.736570         0.670248
