19
Iteration:  1442
 C         1.575599         0.714372         0.049925
 C         0.080624         0.155877        -0.165853
 C        -0.974410         0.764524        -0.741645
 C        -2.084557        -0.224687        -0.231160
 C        -1.736253        -0.626553         1.136372
 C        -0.479729        -1.203640         0.447387
 O         0.313219        -2.034823         1.222447
 C        -1.394615        -1.534795        -0.808840
 O        -2.032454        -2.836742        -0.627180
 H         1.540418         1.845137        -0.108677
 H         2.068599         0.512062         0.992261
 H         2.319501         0.129420        -0.640134
 H        -1.055108         1.790406        -1.254315
 H        -3.148017        -0.037831        -0.478357
 H        -1.578617         0.234854         1.877798
 H        -2.232961        -1.488767         1.528827
 H         1.224695        -1.665189         1.407326
 H        -0.966976        -1.357397        -1.840901
 H        -1.478863        -3.433798        -1.111107
