19
Iteration:  2625charge 0 multiplicity 1
 C         1.466119         0.584242        -0.015273
 C         0.025528         0.300184         0.177243
 C        -1.124205         0.926074        -0.111044
 C        -2.158193        -0.220279         0.015531
 C        -1.704732        -1.096915         1.172992
 C        -0.421238        -1.161232         0.358527
 O         0.589546        -2.196799         0.585868
 C        -1.336261        -1.270395        -0.869385
 O        -1.972021        -2.570690        -0.781236
 H         1.603742         1.588826        -0.278629
 H         1.879769         0.234089         0.929459
 H         1.783089        -0.106263        -0.787288
 H        -1.446366         1.974529        -0.176865
 H        -3.146334         0.059520        -0.407609
 H        -1.581713        -0.575597         2.122379
 H        -2.326982        -1.994251         1.157616
 H         0.428050        -2.578595         1.401962
 H        -0.864254        -1.069053        -1.802084
 H        -2.126249        -2.853937        -1.657561
