19
Iteration:  4732
 C         1.586977         0.594133        -0.054656
 C         0.281671         0.016437        -0.315495
 C        -0.550633         0.118515        -1.364774
 C        -1.845118        -0.601554        -0.969270
 C        -2.006359        -0.116384         0.546630
 C        -0.628967        -0.806731         0.631350
 O        -0.044384        -1.238359         1.807153
 C        -1.235901        -1.943233        -0.400934
 O        -2.141180        -2.953028         0.071329
 H         1.754137         0.681508         1.034503
 H         2.343488        -0.219391        -0.295453
 H         1.891747         1.473206        -0.657008
 H        -0.489056         0.526220        -2.436613
 H        -2.745689        -0.536415        -1.601068
 H        -2.006413         1.065247         0.700477
 H        -2.793253        -0.506902         1.170331
 H         0.875459        -1.621450         1.533194
 H        -0.424075        -2.341415        -1.047501
 H        -1.639990        -3.447215         0.827565
