19
Iteration:  3618charge 0 multiplicity 1
 C         1.489148         0.531939        -0.084679
 C         0.108541         0.174500        -0.172900
 C        -0.952208         0.682111        -0.854582
 C        -2.075654        -0.307972        -0.433248
 C        -1.894063        -0.497924         1.041463
 C        -0.448785        -1.043220         0.558743
 O         0.363116        -1.859067         1.445498
 C        -1.231186        -1.598764        -0.717698
 O        -2.001865        -2.793357        -0.528909
 H         1.938887         0.914432         0.852291
 H         2.055694        -0.434780        -0.296484
 H         1.908920         1.192650        -0.873022
 H        -1.240183         1.544335        -1.403038
 H        -2.944404        -0.098691        -1.078155
 H        -1.966048         0.395331         1.765268
 H        -2.499003        -1.270602         1.440473
 H         0.043424        -2.815282         1.276090
 H        -0.593475        -1.612163        -1.672364
 H        -1.397561        -3.520470        -0.579034
