19
Iteration:   115
 C         1.466559         0.681139         0.060867
 C         0.066293         0.130280         0.072614
 C        -1.082427         0.828191        -0.122118
 C        -2.108124        -0.254658         0.046970
 C        -1.583846        -1.056320         1.316942
 C        -0.350737        -1.266965         0.330180
 O         0.752538        -2.005816         0.744819
 C        -1.456455        -1.327034        -0.922038
 O        -2.310742        -2.503090        -0.986270
 H         1.887317         0.310814        -0.945997
 H         1.373135         1.747934         0.212255
 H         1.875069         0.110077         0.851499
 H        -1.250527         1.922158        -0.191490
 H        -3.181715        -0.071473        -0.177437
 H        -1.492302        -0.501825         2.245638
 H        -2.146978        -1.986573         1.486882
 H         0.704001        -2.959500         0.673899
 H        -1.180885        -0.918060        -1.918009
 H        -2.028751        -3.181739        -1.657660
