19
Iteration:  2411charge 0 multiplicity 1
 C         1.563427         0.806967         0.038766
 C         0.138966         0.248551         0.091646
 C        -1.071427         0.825083        -0.112997
 C        -2.099012        -0.311191        -0.076927
 C        -1.655109        -1.041466         1.204357
 C        -0.424027        -1.187813         0.321930
 O         0.572434        -2.149975         0.717575
 C        -1.441468        -1.380796        -0.916318
 O        -2.158908        -2.564863        -0.753613
 H         1.521808         1.924162         0.244473
 H         2.260018         0.407132         0.754669
 H         2.006265         0.585198        -0.928162
 H        -1.405485         1.822956        -0.552244
 H        -3.171113        -0.044593        -0.275423
 H        -1.501894        -0.347827         2.084790
 H        -2.235718        -2.030973         1.311938
 H         0.141338        -2.956931         0.872382
 H        -0.941228        -1.335721        -1.874900
 H        -2.382895        -2.960326        -1.542609
