19
Iteration:  4474
 C         1.599282         0.654416        -0.080146
 C         0.170301         0.100458        -0.363448
 C        -0.693108         0.215888        -1.358046
 C        -1.926710        -0.473120        -0.822919
 C        -1.903527        -0.234692         0.698973
 C        -0.506509        -0.904652         0.669084
 O         0.014958        -1.400705         1.820563
 C        -1.187997        -1.836018        -0.410380
 O        -2.057512        -3.019778        -0.178334
 H         1.645475         1.790239         0.034107
 H         1.994875         0.183507         0.813815
 H         2.230035         0.392780        -0.907408
 H        -0.729856         0.984607        -2.100800
 H        -2.788585        -0.511515        -1.519376
 H        -1.925938         0.830972         1.155903
 H        -2.581402        -0.821282         1.346930
 H         0.708377        -2.194804         1.756675
 H        -0.655958        -2.308062        -1.196533
 H        -2.805656        -2.747788         0.493892
