19
Iteration:  4848
 C         1.634982         0.307248        -0.091497
 C         0.231475        -0.002917        -0.428018
 C        -0.612151         0.119465        -1.412477
 C        -1.881671        -0.526369        -0.991987
 C        -2.063737        -0.131319         0.480059
 C        -0.638461        -0.768939         0.615417
 O        -0.210104        -1.112373         1.939713
 C        -1.153741        -1.857733        -0.436419
 O        -1.855245        -2.877589         0.246276
 H         2.361449        -0.020783        -0.890366
 H         1.790708         1.380292         0.180889
 H         1.826789        -0.112229         0.932713
 H        -0.542722         0.607419        -2.466311
 H        -2.759124        -0.585230        -1.595024
 H        -2.246395         0.861225         0.802317
 H        -2.753067        -0.846337         0.953130
 H         0.543975        -1.810766         1.792353
 H        -0.376807        -2.406362        -1.064275
 H        -1.974105        -3.740407        -0.273234
