19
Iteration:  4931charge 0 multiplicity 1
 C         1.632013         0.512107        -0.061826
 C         0.231735         0.002845        -0.373606
 C        -0.550863        -0.033141        -1.407566
 C        -1.864356        -0.623350        -1.007752
 C        -1.993521        -0.132593         0.459643
 C        -0.537797        -0.713711         0.636467
 O        -0.141729        -1.144082         1.876794
 C        -1.168923        -1.933431        -0.381011
 O        -2.004962        -3.013052         0.146603
 H         1.580418         1.627912        -0.113738
 H         1.992110         0.393088         0.934008
 H         2.398229         0.230036        -0.775730
 H        -0.311918         0.270218        -2.503027
 H        -2.748194        -0.705010        -1.686256
 H        -2.121506         1.011491         0.678327
 H        -2.773936        -0.657029         1.152688
 H        -0.270246        -0.341462         2.438167
 H        -0.507533        -2.376424        -1.103050
 H        -2.835220        -2.748984         0.391280
