19
Iteration:  2145charge 0 multiplicity 1
 C         1.511060         0.653591        -0.025761
 C         0.089251         0.263836         0.049230
 C        -1.053686         0.830486        -0.266181
 C        -2.122874        -0.200433        -0.107495
 C        -1.643510        -0.829196         1.278537
 C        -0.409896        -1.185576         0.357663
 O         0.494816        -2.047160         0.867825
 C        -1.399245        -1.482145        -0.836521
 O        -2.012966        -2.779897        -0.864393
 H         1.839029         0.844652        -1.023822
 H         1.719677         1.552444         0.676214
 H         2.276001        -0.083895         0.348303
 H        -1.281183         1.883623        -0.665929
 H        -3.179237         0.052762        -0.291134
 H        -1.642263        -0.011547         2.091642
 H        -2.271444        -1.733064         1.605462
 H        -0.030243        -2.818943         1.069391
 H        -0.970179        -1.159915        -1.786600
 H        -2.773974        -2.768832        -1.351770
