19
Iteration:  2943
 C         1.509291         0.698193         0.048707
 C         0.071202         0.294029         0.061472
 C        -1.110495         0.926715        -0.333518
 C        -2.196961        -0.215646        -0.168487
 C        -1.694156        -0.760934         1.311850
 C        -0.457449        -1.231645         0.425055
 O         0.383121        -2.352350         0.785829
 C        -1.372115        -1.377771        -0.822695
 O        -1.884235        -2.714154        -0.899099
 H         1.699169         1.377763         0.980721
 H         2.152602        -0.274993        -0.013475
 H         1.692331         1.308981        -0.904811
 H        -1.238855         1.758057        -1.042175
 H        -3.181586        -0.051159        -0.536762
 H        -1.562373        -0.030268         2.074435
 H        -2.338994        -1.603469         1.783876
 H         1.218180        -2.002957         1.067715
 H        -0.830360        -1.102326        -1.709556
 H        -1.551565        -3.186366        -0.044564
