19
Iteration:  3694
 C         1.496685         0.568099         0.018890
 C         0.157408         0.159405        -0.268416
 C        -0.960337         0.689983        -0.920546
 C        -2.070145        -0.274296        -0.517205
 C        -1.820209        -0.532670         1.038179
 C        -0.463724        -1.031058         0.500362
 O         0.292534        -1.823939         1.351708
 C        -1.207421        -1.694964        -0.694246
 O        -1.943661        -2.877525        -0.349587
 H         2.253811        -0.154409        -0.342687
 H         1.901433         1.512938        -0.343454
 H         1.733171         0.632017         1.100419
 H        -0.953064         1.446130        -1.688776
 H        -3.087686        -0.182022        -0.932540
 H        -1.907077         0.416818         1.704279
 H        -2.477201        -1.281611         1.437394
 H        -0.281587        -1.881432         2.111008
 H        -0.750120        -1.756780        -1.662013
 H        -2.555061        -3.009112        -1.163418
