19
Iteration:  2121charge 0 multiplicity 1
 C         1.470598         0.630623        -0.115253
 C         0.061674         0.189291         0.008652
 C        -1.123655         0.785885        -0.369268
 C        -2.175651        -0.275769        -0.088828
 C        -1.701386        -0.794486         1.283635
 C        -0.397614        -1.216158         0.595660
 O         0.604076        -2.116004         0.958185
 C        -1.338321        -1.425478        -0.783635
 O        -1.997233        -2.591351        -0.946320
 H         1.661610         1.216513        -1.033746
 H         1.745134         1.228915         0.768008
 H         2.235958        -0.188423        -0.138902
 H        -1.280855         1.691927        -0.839458
 H        -3.275430        -0.189619        -0.311049
 H        -1.561614         0.053150         1.984320
 H        -2.389281        -1.483786         1.746145
 H         0.205938        -3.054100         0.790715
 H        -0.882604        -1.056022        -1.714795
 H        -2.666000        -2.494629        -1.684395
