19
Iteration:  3059
 C         1.457023         0.656373         0.074348
 C         0.096004         0.211560         0.016436
 C        -1.011241         0.827954        -0.439684
 C        -2.150073        -0.208459        -0.249227
 C        -1.658292        -0.836046         1.189772
 C        -0.331107        -1.167445         0.474507
 O         0.658527        -1.975731         1.040056
 C        -1.523453        -1.492139        -0.880323
 O        -2.209030        -2.739946        -0.811165
 H         2.049790         0.048805        -0.575988
 H         1.604252         1.695026        -0.132772
 H         1.911623         0.463373         1.066710
 H        -1.123570         1.853261        -0.775430
 H        -3.156010         0.141793        -0.548165
 H        -1.672356        -0.112096         2.052063
 H        -2.171868        -1.799218         1.478777
 H         0.538441        -2.873999         0.878590
 H        -1.065180        -1.302059        -1.880209
 H        -1.616260        -3.425340        -1.329010
