19
Iteration:  1047charge 0 multiplicity 1
 C         1.529863         0.737739         0.022149
 C         0.051530         0.228143        -0.071980
 C        -0.968510         0.906651        -0.469298
 C        -2.057321        -0.237830        -0.326049
 C        -1.840500        -0.781485         1.194418
 C        -0.431038        -1.189177         0.379146
 O         0.399031        -2.203951         0.852707
 C        -1.290474        -1.512167        -0.826838
 O        -2.060671        -2.760380        -0.567174
 H         2.237927         0.224609         0.791750
 H         2.039103         0.997788        -0.831029
 H         1.521818         1.714788         0.628035
 H        -0.914349         2.001337        -0.581886
 H        -3.105869         0.020664        -0.553897
 H        -1.729826        -0.033946         1.956667
 H        -2.522747        -1.674653         1.390585
 H         0.886514        -1.869285         1.583438
 H        -0.946971        -1.476056        -1.878566
 H        -1.769280        -3.176188         0.217897
