19
Iteration:  3421charge 0 multiplicity 1
 C         1.536647         0.586824        -0.024620
 C         0.064887         0.248750         0.001772
 C        -0.993750         0.772132        -0.672221
 C        -2.102263        -0.297129        -0.396269
 C        -1.830074        -0.702368         1.075128
 C        -0.439815        -1.152272         0.489222
 O         0.500751        -1.909157         1.228153
 C        -1.356690        -1.595805        -0.869872
 O        -2.054563        -2.753124        -0.636685
 H         1.884582         1.255125         0.821496
 H         2.203835        -0.369321         0.097078
 H         1.628224         1.089117        -1.039747
 H        -1.016704         1.758236        -1.051084
 H        -3.157571        -0.002333        -0.687691
 H        -1.791105         0.199162         1.702675
 H        -2.526606        -1.507968         1.386194
 H         0.274982        -2.124663         2.250264
 H        -0.817045        -1.528213        -1.896460
 H        -1.332161        -3.358223        -0.160090
