19
Iteration:   707
 C         1.408416         0.585588        -0.125432
 C         0.073267         0.242034         0.102546
 C        -1.111486         0.914231        -0.217120
 C        -2.139450        -0.202857        -0.113701
 C        -1.757306        -0.883812         1.188829
 C        -0.412322        -1.130235         0.422099
 O         0.459155        -2.279484         0.650901
 C        -1.369121        -1.294488        -0.793041
 O        -1.925854        -2.652296        -0.687994
 H         2.214970         0.523896         0.724161
 H         1.852966        -0.114315        -0.861345
 H         1.648792         1.618668        -0.519636
 H        -1.128446         1.938975        -0.563048
 H        -3.214543         0.070290        -0.241779
 H        -1.792076        -0.378880         2.151835
 H        -2.166509        -1.847749         1.202214
 H         0.858037        -2.250348         1.576432
 H        -1.036259        -1.193366        -1.862018
 H        -1.041656        -3.091239        -0.467041
