19
Iteration:   640charge 0 multiplicity 1
 C         1.468628         0.636366        -0.099391
 C         0.027517         0.209201        -0.013154
 C        -1.065928         0.838775        -0.258418
 C        -2.125102        -0.291591         0.007119
 C        -1.604561        -0.967298         1.329330
 C        -0.442835        -1.245726         0.416038
 O         0.539992        -2.117526         0.938931
 C        -1.365643        -1.379915        -0.900374
 O        -2.142494        -2.519393        -0.973596
 H         1.828191         1.549370         0.475968
 H         2.196566        -0.124812         0.088290
 H         1.817562         0.989099        -1.081169
 H        -1.495984         1.754468        -0.733192
 H        -3.208776        -0.246437        -0.290824
 H        -1.345812        -0.301982         2.136642
 H        -2.190223        -1.789758         1.479894
 H         0.908596        -1.726196         1.701133
 H        -0.834367        -1.003046        -1.823792
 H        -1.708987        -3.373562        -1.053939
