19
Iteration:  4515
 C         1.560700         0.577963        -0.055650
 C         0.187955         0.021192        -0.313329
 C        -0.678906         0.319357        -1.265819
 C        -1.928190        -0.411820        -0.948503
 C        -1.931297        -0.184447         0.628889
 C        -0.574684        -0.943108         0.528680
 O        -0.065241        -1.476286         1.780909
 C        -1.211324        -1.884854        -0.516971
 O        -1.959196        -2.949119         0.072441
 H         1.667610         0.949365         0.976224
 H         2.287314        -0.215486        -0.217847
 H         1.675779         1.481274        -0.640017
 H        -0.590736         1.034059        -2.046015
 H        -2.811162        -0.448741        -1.567972
 H        -1.839154         0.912915         0.926592
 H        -2.679777        -0.722284         1.097468
 H         0.797017        -1.734291         1.577072
 H        -0.518046        -2.222340        -1.277544
 H        -1.666026        -3.024083         0.984731
