19
Iteration:   790
 C         1.460996         0.690962         0.115956
 C         0.112848         0.135597        -0.095041
 C        -1.093582         0.773577        -0.453376
 C        -2.113725        -0.291099        -0.077080
 C        -1.582285        -0.854496         1.257573
 C        -0.344180        -1.221377         0.385182
 O         0.669061        -2.004193         0.811787
 C        -1.414063        -1.492029        -0.817134
 O        -2.285196        -2.574768        -0.744386
 H         2.215784        -0.057826         0.289597
 H         1.650536         1.582650        -0.611356
 H         1.329321         1.301973         0.991813
 H        -1.238773         1.721196        -1.025391
 H        -3.198793        -0.127578        -0.207027
 H        -1.196162        -0.147256         2.089514
 H        -2.067503        -1.782367         1.741820
 H         0.392748        -2.731432         1.328769
 H        -0.948210        -1.249943        -1.782177
 H        -2.351728        -3.003082        -1.569691
