19
Iteration:  3490charge 0 multiplicity 1
 C         1.539965         0.722055         0.042528
 C         0.121565         0.111441        -0.050858
 C        -0.929705         0.708706        -0.718701
 C        -2.116370        -0.242821        -0.418278
 C        -1.836551        -0.563862         1.025915
 C        -0.501781        -1.110344         0.519190
 O         0.295300        -2.031576         1.157242
 C        -1.291421        -1.619283        -0.808078
 O        -1.897963        -2.839941        -0.463848
 H         2.339335        -0.070605         0.038867
 H         1.739708         1.443001        -0.786588
 H         1.423228         1.238496         0.975702
 H        -0.946341         1.559791        -1.455324
 H        -3.121817        -0.073534        -0.788212
 H        -1.655657         0.403471         1.576676
 H        -2.340640        -1.323905         1.598827
 H         0.872190        -1.436631         1.723586
 H        -0.887225        -1.601569        -1.796935
 H        -2.569085        -3.143218        -1.145773
