19
Iteration:  4442charge 0 multiplicity 1
 C         1.590280         0.521813        -0.088759
 C         0.161368         0.032892        -0.208803
 C        -0.770547         0.328765        -1.201863
 C        -1.954511        -0.556027        -0.866819
 C        -1.999795        -0.255889         0.689708
 C        -0.554325        -0.906868         0.656225
 O         0.134377        -1.307289         1.778119
 C        -1.140885        -1.883254        -0.547314
 O        -2.027083        -2.935562        -0.113304
 H         1.854066         1.168688        -0.976457
 H         1.714452         0.977298         0.909596
 H         2.285541        -0.322890        -0.197642
 H        -0.676530         1.016004        -2.008443
 H        -2.737304        -0.446899        -1.654795
 H        -1.832835         0.851557         0.920186
 H        -2.741414        -0.805095         1.313219
 H         0.825300        -1.909553         1.589260
 H        -0.460697        -2.218524        -1.367286
 H        -2.894503        -2.661594        -0.191715
