19
Iteration:  3631charge 0 multiplicity 1
 C         1.585854         0.574004        -0.174910
 C         0.126674         0.217949        -0.134946
 C        -0.987421         0.711714        -0.836929
 C        -2.071937        -0.254317        -0.545787
 C        -1.980301        -0.514033         1.056723
 C        -0.491596        -1.061673         0.637940
 O         0.374170        -1.910095         1.426505
 C        -1.205246        -1.619486        -0.634275
 O        -2.010454        -2.804627        -0.519604
 H         1.753420         0.477008         0.911357
 H         2.174888        -0.236961        -0.748139
 H         1.687516         1.579013        -0.566999
 H        -0.707243         1.372414        -1.609557
 H        -3.084091        -0.227760        -0.800813
 H        -1.956157         0.419383         1.634794
 H        -2.639574        -1.281842         1.386120
 H         0.255516        -2.794413         1.155537
 H        -0.535377        -1.737304        -1.597229
 H        -1.446246        -3.638225        -0.545289
