19
Iteration:  1515charge 0 multiplicity 1
 C         1.525537         0.670022         0.158737
 C         0.186517         0.215610        -0.146409
 C        -0.961513         0.796234        -0.580364
 C        -2.086088        -0.268201        -0.389486
 C        -1.773964        -0.774541         1.065681
 C        -0.401707        -1.118386         0.384079
 O         0.451794        -1.957918         0.987445
 C        -1.385325        -1.647054        -0.817804
 O        -2.147145        -2.711040        -0.484777
 H         1.940831         1.034367        -0.832658
 H         1.536660         1.548484         0.796664
 H         2.076701        -0.065868         0.692591
 H        -0.957807         1.795677        -1.156913
 H        -3.117286        -0.132444        -0.706744
 H        -1.581257        -0.017697         1.854708
 H        -2.431145        -1.666761         1.288991
 H         0.209559        -2.090046         1.868548
 H        -1.114520        -1.642994        -1.924911
 H        -1.639956        -3.407292         0.102356
