19
Iteration:  1892charge 0 multiplicity 1
 C         1.555157         0.475640        -0.070117
 C         0.112286         0.314660        -0.121058
 C        -1.135959         0.827044        -0.454139
 C        -2.179183        -0.238883        -0.106864
 C        -1.729217        -0.779063         1.262221
 C        -0.454717        -1.026397         0.453867
 O         0.342269        -2.089917         0.967972
 C        -1.338930        -1.337679        -0.766367
 O        -1.764271        -2.791514        -0.704462
 H         2.159003        -0.244032        -0.725808
 H         1.891774         1.439939        -0.452224
 H         1.934339         0.373903         0.986769
 H        -1.457960         1.663080        -1.059581
 H        -3.203521        -0.095498        -0.481804
 H        -1.637038        -0.053200         2.103147
 H        -2.284715        -1.767379         1.459371
 H        -0.345093        -2.854528         0.925743
 H        -0.774130        -1.062662        -1.689029
 H        -2.434611        -2.980846        -1.521114
