19
Iteration:  1557charge 0 multiplicity 1
 C         1.490388         0.591847        -0.013588
 C         0.076128         0.210079        -0.031546
 C        -0.991009         0.747021        -0.676433
 C        -2.110198        -0.275311        -0.254026
 C        -1.730893        -0.499363         1.234138
 C        -0.505335        -1.101715         0.491495
 O         0.377200        -2.071112         1.002065
 C        -1.356633        -1.544073        -0.711492
 O        -1.931742        -2.812548        -0.739415
 H         2.049989         0.270912        -0.898292
 H         1.740197         1.688114         0.161576
 H         1.821739         0.118724         0.881677
 H        -1.103556         1.513063        -1.528464
 H        -3.102007         0.073281        -0.526477
 H        -1.586062         0.358846         1.843243
 H        -2.391467        -1.282226         1.714464
 H        -0.085551        -2.280677         1.842888
 H        -0.684711        -1.406244        -1.552781
 H        -1.219193        -3.326570        -0.484125
