19
Iteration:  2672
 C         1.538388         0.884143         0.190463
 C         0.104265         0.199236         0.094796
 C        -1.059860         0.919796        -0.268740
 C        -2.104276        -0.163490        -0.063758
 C        -1.639224        -0.937172         1.309079
 C        -0.404321        -1.261033         0.365144
 O         0.497930        -2.277974         0.534133
 C        -1.449553        -1.453465        -0.763926
 O        -2.144236        -2.713667        -0.896519
 H         1.496695         1.875344         0.764791
 H         2.197355         0.128947         0.619630
 H         1.756338         1.109698        -0.830712
 H        -1.171671         1.994752        -0.311245
 H        -3.175637         0.067456         0.047323
 H        -1.427054        -0.433714         2.198698
 H        -2.313978        -1.792039         1.391666
 H         1.154038        -2.041246         1.301877
 H        -1.081580        -1.084524        -1.774000
 H        -1.884684        -3.092796        -1.857829
