19
Iteration:   159
 C         1.411701         0.650981        -0.194146
 C         0.111304         0.300679         0.304743
 C        -1.103360         0.934344        -0.023583
 C        -2.130654        -0.220017         0.018166
 C        -1.703649        -1.039559         1.288367
 C        -0.439789        -1.180343         0.439587
 O         0.542133        -2.224233         0.635477
 C        -1.342474        -1.319184        -0.902036
 O        -1.919873        -2.624525        -0.945140
 H         1.334920         0.839752        -1.347228
 H         1.788512         1.508813         0.405230
 H         2.014709        -0.274377        -0.023161
 H        -1.245603         2.002107        -0.247593
 H        -3.204350         0.085340        -0.056653
 H        -1.550363        -0.410645         2.162844
 H        -2.303564        -1.962955         1.543116
 H         0.019587        -2.936492         1.014841
 H        -0.845251        -0.999267        -1.841058
 H        -2.549049        -2.660160        -1.707778
