19
Iteration:   486charge 0 multiplicity 1
 C         1.474487         0.643245         0.010226
 C         0.112039         0.252261         0.132725
 C        -1.129983         0.915674        -0.261731
 C        -2.103323        -0.260564        -0.104840
 C        -1.719235        -0.956733         1.183219
 C        -0.415289        -1.180682         0.394444
 O         0.671779        -2.095662         0.761917
 C        -1.337720        -1.418679        -0.836632
 O        -2.125768        -2.658471        -0.750120
 H         1.835885         0.663250        -1.096105
 H         1.781812         1.670761         0.187614
 H         2.126572         0.021199         0.658594
 H        -1.310392         1.975890        -0.505713
 H        -3.102615        -0.003266        -0.429937
 H        -1.750620        -0.382857         2.081649
 H        -2.154683        -1.928188         1.259912
 H         0.223369        -2.968457         0.781853
 H        -0.968765        -1.247553        -1.881367
 H        -2.938903        -2.533264        -1.327087
