19
Iteration:  4396charge 0 multiplicity 1
 C         1.652446         0.434529        -0.114378
 C         0.172321         0.161531        -0.277709
 C        -0.807176         0.368232        -1.202774
 C        -2.002495        -0.462736        -0.779100
 C        -1.952883        -0.216722         0.744395
 C        -0.558354        -0.886970         0.575687
 O        -0.064134        -1.409973         1.748752
 C        -1.177731        -1.810341        -0.526653
 O        -1.821050        -3.007800        -0.124059
 H         2.186513        -0.268734        -0.775772
 H         1.901544         1.469669        -0.241423
 H         1.906435         0.141395         0.888652
 H        -0.699832         0.887773        -2.165128
 H        -2.912672        -0.461691        -1.356728
 H        -2.013499         0.905470         1.042124
 H        -2.523061        -0.863223         1.350062
 H         0.752901        -1.991217         1.644530
 H        -0.533112        -2.182727        -1.286254
 H        -2.783506        -2.858527         0.026529
