19
Iteration:  3610
 C         1.558709         0.487311        -0.052673
 C         0.117159         0.188054        -0.126805
 C        -0.991086         0.659111        -0.824654
 C        -2.044591        -0.333703        -0.474533
 C        -1.797335        -0.508542         1.060588
 C        -0.508938        -1.038657         0.542286
 O         0.330842        -1.782695         1.389120
 C        -1.297877        -1.633696        -0.740386
 O        -1.974316        -2.776235        -0.531656
 H         1.668120         1.184081         0.796320
 H         2.162306        -0.456489         0.037293
 H         1.727529         0.989136        -0.985618
 H        -1.141381         1.595284        -1.277061
 H        -3.004014        -0.272321        -0.913393
 H        -1.828723         0.369281         1.679660
 H        -2.339641        -1.356111         1.466117
 H        -0.071885        -2.661667         1.503220
 H        -0.830434        -1.634871        -1.790765
 H        -1.440232        -3.506251        -0.702003
