19
Iteration:  2405charge 0 multiplicity 1
 C         1.544711         0.807704         0.021747
 C         0.167668         0.229886         0.108869
 C        -1.104248         0.828197        -0.164150
 C        -2.136433        -0.282556        -0.093350
 C        -1.664280        -1.043213         1.227133
 C        -0.369544        -1.205891         0.362586
 O         0.549730        -2.139486         0.723818
 C        -1.384618        -1.371811        -0.880009
 O        -2.152748        -2.558194        -0.750369
 H         1.428689         1.858361         0.260240
 H         2.234070         0.280462         0.722101
 H         1.898470         0.659639        -1.032251
 H        -1.223736         1.815452        -0.523612
 H        -3.174477        -0.097760        -0.335912
 H        -1.472790        -0.614332         2.200840
 H        -2.203914        -1.943545         1.304675
 H         0.018941        -3.016047         0.565946
 H        -1.154879        -1.242619        -1.978914
 H        -2.296043        -2.944417        -1.624505
