19
Iteration:  3081charge 0 multiplicity 1
 C         1.565883         0.692324        -0.008289
 C         0.107324         0.283752         0.016923
 C        -1.081844         0.883118        -0.347614
 C        -2.085749        -0.272871        -0.206545
 C        -1.778869        -0.805503         1.156872
 C        -0.430888        -1.198604         0.421974
 O         0.522233        -2.024351         0.956046
 C        -1.253020        -1.572249        -0.801557
 O        -2.147395        -2.720142        -0.734777
 H         2.012362         0.652100        -0.968504
 H         1.579202         1.742565         0.262270
 H         2.262540         0.197951         0.667596
 H        -1.227787         1.821674        -0.783409
 H        -3.123159        -0.120588        -0.481653
 H        -1.673741        -0.063788         1.956259
 H        -2.545735        -1.598536         1.406650
 H         0.177710        -2.989580         1.047397
 H        -0.836781        -1.435124        -1.808902
 H        -2.094621        -3.276227        -1.489530
