19
Iteration:  3872
 C         1.706655         0.396373        -0.137324
 C         0.095693         0.170207        -0.161298
 C        -0.960557         0.661189        -0.814192
 C        -2.017941        -0.346677        -0.660313
 C        -2.002454        -0.450871         0.844441
 C        -0.567545        -0.973683         0.597214
 O         0.193617        -1.639795         1.544133
 C        -1.210115        -1.736276        -0.710322
 O        -1.945678        -2.902195        -0.347455
 H         2.314680        -0.560312         0.002196
 H         2.099621         0.748197        -1.133749
 H         1.965104         1.148320         0.560617
 H        -0.817338         1.336664        -1.713910
 H        -2.955542        -0.155356        -1.198643
 H        -2.268052         0.462729         1.300847
 H        -2.622437        -1.312740         1.321445
 H         1.062943        -1.503390         1.179389
 H        -0.482140        -1.992409        -1.481252
 H        -1.763244        -3.003496         0.664050
