19
Iteration:  1260charge 0 multiplicity 1
 C         1.501192         0.679097         0.141018
 C         0.080538         0.251054        -0.084248
 C        -1.012792         0.838573        -0.643641
 C        -2.061277        -0.301049        -0.378995
 C        -1.723876        -0.758668         1.151905
 C        -0.400067        -1.243114         0.385219
 O         0.574455        -1.959720         1.060353
 C        -1.334679        -1.584714        -0.805651
 O        -2.211672        -2.661963        -0.572950
 H         1.844412         1.122557        -0.749816
 H         1.417965         1.492702         0.961403
 H         2.167118        -0.100782         0.473192
 H        -1.118813         1.789512        -1.120838
 H        -3.115121        -0.403652        -0.676209
 H        -1.613906         0.138420         1.773744
 H        -2.377934        -1.491591         1.509308
 H         0.419578        -2.847708         0.699744
 H        -0.931320        -1.838575        -1.802611
 H        -2.044523        -3.345180         0.070614
