19
Iteration:  1158
 C         1.589271         0.567907        -0.244365
 C         0.094535         0.194232        -0.001379
 C        -1.052891         0.930584        -0.373118
 C        -2.150600        -0.168648        -0.250267
 C        -1.878507        -0.781386         1.059181
 C        -0.441097        -1.146749         0.439842
 O         0.409042        -1.994329         1.145692
 C        -1.247621        -1.484659        -0.726765
 O        -1.943999        -2.801329        -0.597267
 H         1.734088         0.317678        -1.342514
 H         1.690076         1.642567        -0.157395
 H         2.287798         0.074596         0.521289
 H        -1.001437         1.905479        -0.944019
 H        -3.179494         0.155008        -0.485486
 H        -1.899553        -0.141509         1.970294
 H        -2.228397        -1.796751         1.299394
 H         0.013928        -2.906046         0.946661
 H        -0.805270        -1.468942        -1.744372
 H        -1.967529        -3.246716        -1.532695
