19
Iteration:  3601
 C         1.594259         0.489157        -0.042749
 C         0.069007         0.163849        -0.106069
 C        -0.955097         0.680388        -0.761468
 C        -2.112508        -0.335421        -0.513664
 C        -1.791476        -0.547315         1.080541
 C        -0.477813        -1.048617         0.501393
 O         0.324915        -1.725452         1.326758
 C        -1.279929        -1.615272        -0.773822
 O        -2.008745        -2.839245        -0.508746
 H         1.767338         1.327570         0.683655
 H         2.219254        -0.279688         0.416480
 H         2.008903         0.872171        -0.989218
 H        -0.927064         1.560057        -1.415265
 H        -3.163592        -0.211176        -0.699078
 H        -1.635777         0.328749         1.640100
 H        -2.464477        -1.322729         1.598933
 H        -0.207213        -2.416425         1.784721
 H        -0.694646        -1.626755        -1.693289
 H        -1.484432        -3.495635        -0.891068
