19
Iteration:  4701
 C         1.556458         0.495589        -0.073220
 C         0.222892        -0.055743        -0.386028
 C        -0.622064         0.190307        -1.395684
 C        -1.898818        -0.539982        -1.000539
 C        -1.991661        -0.164773         0.566458
 C        -0.622309        -0.790933         0.607360
 O        -0.110584        -1.338965         1.862893
 C        -1.182440        -1.855091        -0.481316
 O        -1.948916        -2.803478         0.205822
 H         1.376479         1.354936         0.649929
 H         1.966545        -0.267878         0.634490
 H         2.342455         0.731642        -0.826143
 H        -0.599715         0.499710        -2.480233
 H        -2.805921        -0.508546        -1.675482
 H        -1.863631         0.912013         0.705296
 H        -2.698706        -0.735217         1.055338
 H         0.466310        -2.040020         1.692998
 H        -0.387558        -2.369015        -1.145046
 H        -1.367318        -3.497896         0.407698
