19
Iteration:   896charge 0 multiplicity 1
 C         1.469142         0.594884        -0.144747
 C         0.108790         0.175158         0.008737
 C        -1.070144         0.831541        -0.415140
 C        -2.151764        -0.194848        -0.097476
 C        -1.670541        -0.742938         1.269990
 C        -0.415033        -1.150329         0.464965
 O         0.423123        -2.028483         1.043246
 C        -1.401206        -1.436484        -0.798555
 O        -1.915926        -2.786284        -0.849430
 H         1.541844         1.367771        -0.951084
 H         1.962859         1.132916         0.763764
 H         1.917699        -0.403825        -0.309392
 H        -1.160243         1.927788        -0.586608
 H        -3.219363        -0.056686        -0.297148
 H        -1.599706        -0.026833         2.033827
 H        -2.288728        -1.622884         1.562469
 H         0.168028        -2.915853         0.899911
 H        -0.999329        -1.155993        -1.790471
 H        -1.825506        -2.999045        -1.748747
