19
Iteration:   367
 C         1.500215         0.690563        -0.038416
 C         0.140970         0.228626         0.123494
 C        -1.081189         0.935329        -0.083532
 C        -2.148606        -0.150167         0.023692
 C        -1.814628        -0.988837         1.209567
 C        -0.448472        -1.198581         0.326431
 O         0.427954        -2.230565         0.476657
 C        -1.416804        -1.370565        -0.863149
 O        -1.944879        -2.661026        -0.729860
 H         2.232609         0.362795         0.776390
 H         2.027848         0.265053        -0.853669
 H         1.747279         1.749394        -0.111935
 H        -1.177206         2.041911        -0.487635
 H        -3.155300         0.258145        -0.080786
 H        -1.782329        -0.554129         2.208485
 H        -2.204040        -1.994817         1.175355
 H         0.964831        -2.075225         1.276115
 H        -0.924697        -1.237131        -1.813090
 H        -1.206984        -3.175947        -0.306316
