19
Iteration:  4663
 C         1.722701         0.508520        -0.102127
 C         0.202319         0.117804        -0.313423
 C        -0.666518         0.193619        -1.295091
 C        -1.874773        -0.633785        -0.964831
 C        -2.026312        -0.247799         0.528098
 C        -0.607387        -0.867492         0.637794
 O        -0.074754        -1.199924         1.861624
 C        -1.195962        -1.926895        -0.487019
 O        -2.086186        -2.859905         0.107990
 H         2.013066         1.430598        -0.571657
 H         1.989476         0.585204         0.979113
 H         2.299132        -0.308724        -0.529752
 H        -0.591596         0.977400        -2.003364
 H        -2.547068        -0.601160        -1.796582
 H        -2.149121         0.829539         0.747384
 H        -2.747547        -0.769577         1.296728
 H         0.785107        -1.635160         1.537807
 H        -0.411083        -2.390483        -1.039854
 H        -1.697645        -3.735831        -0.010399
