19
Iteration:  1145charge 0 multiplicity 1
 C         1.530223         0.549908        -0.247454
 C         0.144398         0.261325         0.069686
 C        -0.986303         0.838497        -0.389441
 C        -2.145891        -0.166938        -0.250038
 C        -1.810222        -0.785004         1.168809
 C        -0.471983        -1.084841         0.515575
 O         0.446826        -1.955470         1.106163
 C        -1.395165        -1.525381        -0.848690
 O        -1.946552        -2.812898        -0.678599
 H         1.930536         0.033075        -1.210051
 H         1.665076         1.584163        -0.311654
 H         2.266909         0.093326         0.493877
 H        -1.107059         1.769599        -0.911517
 H        -3.178667         0.017191        -0.588640
 H        -1.825096        -0.096422         2.036850
 H        -2.569034        -1.657418         1.231158
 H        -0.071660        -2.673699         1.521270
 H        -0.816027        -1.400292        -1.772863
 H        -1.637625        -3.284786        -1.412941
