19
Iteration:  4205
 C         1.620890         0.650113        -0.102251
 C         0.223752         0.102540        -0.181730
 C        -0.700762         0.419355        -1.126376
 C        -1.951321        -0.460414        -0.792070
 C        -1.960658        -0.390917         0.802836
 C        -0.584302        -0.963376         0.582894
 O         0.185582        -1.548260         1.563921
 C        -1.228871        -1.801137        -0.558784
 O        -2.097627        -2.851113        -0.099041
 H         1.895052         0.919602        -1.080741
 H         1.603601         1.484152         0.604999
 H         2.302192        -0.146357         0.274836
 H        -0.574321         1.012884        -2.044331
 H        -2.853630        -0.453694        -1.419498
 H        -2.049426         0.581575         1.284728
 H        -2.632721        -1.119295         1.340524
 H        -0.458283        -1.709180         2.355521
 H        -0.598348        -2.154883        -1.342129
 H        -2.029485        -3.555000        -0.753952
