19
Iteration:  1708
 C         1.543142         0.767390         0.117654
 C         0.149947         0.219419        -0.117578
 C        -0.991094         0.853714        -0.456670
 C        -2.070120        -0.197837        -0.347792
 C        -1.794024        -0.684013         1.089297
 C        -0.435622        -1.161483         0.364705
 O         0.373413        -2.209214         0.932905
 C        -1.362313        -1.600887        -0.777446
 O        -2.087677        -2.752430        -0.545088
 H         1.563655         1.370505         0.967650
 H         2.216295        -0.163352         0.144369
 H         1.883484         1.346838        -0.751027
 H        -1.274729         1.831042        -0.780252
 H        -3.075667         0.055057        -0.662410
 H        -1.555370        -0.070304         1.924746
 H        -2.430695        -1.569415         1.337007
 H         0.937232        -1.782627         1.603511
 H        -0.841456        -1.481151        -1.737345
 H        -1.443606        -3.379608        -0.596781
