19
Iteration:   300charge 0 multiplicity 1
 C         1.443087         0.784418         0.225856
 C         0.123494         0.192854        -0.053756
 C        -1.098855         0.813487        -0.293758
 C        -2.147514        -0.269448         0.022025
 C        -1.443886        -0.936073         1.299820
 C        -0.380499        -1.233133         0.295340
 O         0.660358        -2.233543         0.602858
 C        -1.518830        -1.421888        -0.805661
 O        -2.305027        -2.540587        -0.916188
 H         1.437155         1.694823         0.961785
 H         2.093235         0.030788         0.600760
 H         1.992611         1.213775        -0.569421
 H        -1.333758         1.829635        -0.427453
 H        -3.235709        -0.067622         0.011985
 H        -1.333904        -0.244957         2.079760
 H        -1.906796        -1.849556         1.673220
 H         0.891253        -1.926604         1.550484
 H        -1.275493        -1.083991        -1.796307
 H        -1.704407        -3.245087        -1.249518
