19
Iteration:  3191
 C         1.539620         0.590515         0.014821
 C         0.089323         0.265987         0.009781
 C        -1.008615         0.871986        -0.543884
 C        -2.112394        -0.289000        -0.299709
 C        -1.819964        -0.841255         1.213352
 C        -0.465126        -1.120126         0.503242
 O         0.550363        -1.947365         0.932646
 C        -1.343724        -1.505536        -0.740177
 O        -2.026499        -2.731890        -0.650170
 H         1.747028         1.353008         0.707855
 H         2.140473        -0.260236         0.319945
 H         1.623660         0.911686        -1.031101
 H        -1.002616         1.870932        -1.133132
 H        -3.122491        -0.079999        -0.605457
 H        -1.984421        -0.262846         2.081229
 H        -2.495079        -1.755111         1.412290
 H         0.301619        -2.886901         1.205604
 H        -0.860310        -1.370756        -1.662731
 H        -2.232539        -3.179244        -1.572079
