19
Iteration:  1747
 C         1.491255         0.685662         0.222879
 C         0.077246         0.266540         0.006084
 C        -1.028956         0.743626        -0.628952
 C        -2.076292        -0.254710        -0.343999
 C        -1.718446        -0.650812         1.181292
 C        -0.460804        -1.181077         0.412761
 O         0.539246        -2.138073         0.733091
 C        -1.399838        -1.546001        -0.738140
 O        -2.085693        -2.681115        -0.580126
 H         1.713131         1.742985         0.659389
 H         1.975147         0.097117         0.926563
 H         2.060243         0.567593        -0.715921
 H        -1.162360         1.668649        -1.221188
 H        -3.075543         0.109495        -0.600501
 H        -1.729882         0.214610         1.896669
 H        -2.458747        -1.420642         1.502985
 H         0.400586        -2.392433         1.655458
 H        -0.898766        -1.670452        -1.705271
 H        -1.652547        -3.435465        -0.077777
