19
Iteration:  3999
 C         1.568424         0.601553         0.095257
 C         0.124702         0.228621        -0.219885
 C        -0.839440         0.483831        -1.182678
 C        -1.976519        -0.513103        -0.795945
 C        -1.886655        -0.352193         0.814245
 C        -0.461148        -1.010316         0.529560
 O         0.215167        -1.703957         1.500322
 C        -1.280718        -1.771056        -0.563243
 O        -2.124713        -2.781740        -0.163323
 H         1.799714         1.566219         0.598505
 H         1.984666        -0.151004         0.775945
 H         2.246932         0.513134        -0.872805
 H        -1.060479         1.503072        -1.700965
 H        -2.928293        -0.534496        -1.255394
 H        -1.907026         0.701176         1.134734
 H        -2.525971        -0.924218         1.474160
 H         1.110645        -2.194272         1.283487
 H        -0.444951        -2.198036        -1.317391
 H        -1.683531        -3.376286         0.500512
