19
Iteration:  4718
 C         1.634656         0.526205         0.018007
 C         0.230230        -0.008147        -0.335260
 C        -0.570343         0.051763        -1.478653
 C        -1.928297        -0.563099        -0.896779
 C        -2.040442        -0.072208         0.540390
 C        -0.617471        -0.872835         0.586344
 O        -0.070014        -1.274087         1.795405
 C        -1.222646        -1.843929        -0.417336
 O        -2.008701        -2.876733         0.130306
 H         1.626275         1.251853         0.799146
 H         2.445309        -0.226742         0.072917
 H         1.799759         1.179129        -0.821863
 H        -0.306970         0.743180        -2.247115
 H        -2.701015        -0.661132        -1.608467
 H        -2.153701         1.039182         0.810472
 H        -2.833664        -0.755278         1.079040
 H         0.605101        -1.922267         1.626464
 H        -0.570403        -2.254168        -1.136041
 H        -1.458310        -3.446750         0.573144
