19
Iteration:   376charge 0 multiplicity 1
 C         1.525116         0.648360        -0.093954
 C         0.011844         0.243625         0.075122
 C        -1.041384         0.941493        -0.051096
 C        -2.159538        -0.147754        -0.038794
 C        -1.754504        -0.994624         1.209216
 C        -0.449978        -1.156701         0.365375
 O         0.457823        -2.254666         0.505958
 C        -1.361322        -1.343338        -0.791536
 O        -1.952039        -2.661296        -0.754419
 H         2.203329         0.137363         0.745571
 H         1.911442         0.413397        -1.081104
 H         1.549957         1.710890         0.136373
 H        -1.216588         2.076281        -0.118834
 H        -3.214062         0.056682        -0.311797
 H        -1.723580        -0.598691         2.182047
 H        -2.445003        -1.820274         1.241892
 H         0.773275        -2.127517         1.422897
 H        -0.919132        -1.104263        -1.775658
 H        -1.219844        -3.249547        -0.450712
