19
Iteration:  2897
 C         1.553121         0.652002         0.017155
 C         0.054608         0.205150        -0.017755
 C        -1.104660         0.964458        -0.277421
 C        -2.126300        -0.186151        -0.094635
 C        -1.773466        -0.949518         1.240750
 C        -0.443149        -1.214418         0.456179
 O         0.596146        -2.136641         0.934378
 C        -1.432420        -1.428395        -0.803239
 O        -2.007182        -2.688035        -1.042864
 H         1.482661         1.776600        -0.014310
 H         1.988382         0.226251         1.036649
 H         2.084850         0.076810        -0.860322
 H        -1.125525         1.913267        -1.002578
 H        -3.234877        -0.157303        -0.283763
 H        -1.568550        -0.391992         2.133665
 H        -2.359923        -1.888219         1.458021
 H         1.412664        -1.641871         1.280394
 H        -1.073856        -1.082963        -1.844915
 H        -2.719952        -3.022509        -0.307304
