19
Iteration:  3657charge 0 multiplicity 1
 C         1.565593         0.630470        -0.139622
 C         0.180904         0.170925        -0.021334
 C        -0.881892         0.580760        -0.791666
 C        -2.005926        -0.307654        -0.547464
 C        -1.990499        -0.505893         1.017627
 C        -0.459777        -1.024793         0.541334
 O         0.299199        -1.797939         1.357124
 C        -1.222872        -1.628535        -0.707395
 O        -2.046469        -2.856204        -0.413877
 H         2.224720        -0.040035         0.373146
 H         1.576884         0.488519        -1.174494
 H         1.699232         1.701385         0.117086
 H        -0.867224         1.573089        -1.302225
 H        -3.010917        -0.121792        -1.011015
 H        -1.967984         0.421388         1.546202
 H        -2.601228        -1.345974         1.488067
 H        -0.010150        -2.662630         1.328838
 H        -0.639026        -1.796094        -1.593368
 H        -1.636411        -3.593260        -0.934709
