19
Iteration:  2846charge 0 multiplicity 1
 C         1.502482         0.704651        -0.057778
 C         0.028589         0.260724         0.053639
 C        -1.128523         0.871401        -0.134397
 C        -2.103858        -0.185544        -0.092125
 C        -1.732414        -0.915994         1.228199
 C        -0.414152        -1.239614         0.468671
 O         0.575075        -2.218260         0.914740
 C        -1.287944        -1.448736        -0.843048
 O        -2.099787        -2.629439        -1.067965
 H         1.789858         0.824085        -1.107900
 H         1.567050         1.541118         0.570447
 H         2.128076        -0.013373         0.379517
 H        -1.135012         1.771435        -0.865389
 H        -3.113146         0.007274        -0.408867
 H        -1.793576        -0.348883         2.152851
 H        -2.339796        -1.852070         1.437559
 H         1.335735        -1.689862         0.996526
 H        -0.846747        -1.199082        -1.768132
 H        -2.528030        -2.911919        -0.297868
