19
Iteration:  4992
 C         1.648262         0.567656        -0.007973
 C         0.185035         0.053633        -0.361255
 C        -0.505252        -0.024051        -1.455164
 C        -1.756214        -0.755670        -1.083449
 C        -2.108108        -0.149755         0.386531
 C        -0.699901        -0.783344         0.592771
 O        -0.149641        -1.265755         1.828848
 C        -1.085393        -1.893952        -0.325931
 O        -2.076714        -2.740520         0.306067
 H         1.732176         0.780898         1.074985
 H         2.394995        -0.264584        -0.308308
 H         1.914868         1.458295        -0.623488
 H        -0.198532         0.333804        -2.453147
 H        -2.585408        -1.081875        -1.774798
 H        -2.153663         0.970851         0.449222
 H        -3.022706        -0.625893         0.770338
 H         0.398752        -0.492695         2.200498
 H        -0.366422        -2.502125        -0.972748
 H        -1.614878        -3.502356         0.695817
