19
Iteration:   501
 C         1.582776         0.666628         0.057460
 C         0.069774         0.242806         0.006230
 C        -1.127632         0.867020        -0.238440
 C        -2.194718        -0.196194        -0.139712
 C        -1.801493        -0.894266         1.231952
 C        -0.384140        -1.190577         0.406904
 O         0.607609        -2.157463         0.632288
 C        -1.397676        -1.390636        -0.800353
 O        -1.926632        -2.669791        -0.703372
 H         1.910620         0.787786        -0.944511
 H         1.590087         1.534605         0.733433
 H         2.055134        -0.225262         0.527152
 H        -1.257865         1.823150        -0.725998
 H        -3.278535         0.014465        -0.306992
 H        -1.691541        -0.189533         2.145867
 H        -2.453278        -1.792572         1.363400
 H         0.176614        -3.043116         0.906295
 H        -0.948935        -1.163190        -1.765094
 H        -2.905234        -2.631994        -0.967515
