19
Iteration:  1464
 C         1.477274         0.705357         0.059523
 C         0.140019         0.154770        -0.113912
 C        -0.941836         0.677081        -0.615503
 C        -2.093559        -0.261847        -0.386857
 C        -1.768982        -0.509629         1.175777
 C        -0.431992        -1.105751         0.521895
 O         0.442983        -2.083215         1.006579
 C        -1.346793        -1.574410        -0.721559
 O        -2.148886        -2.818590        -0.624066
 H         1.351536         1.742734        -0.402240
 H         1.621422         0.917774         1.120396
 H         2.431221         0.033733        -0.126805
 H        -1.012619         1.642501        -1.217745
 H        -3.134299        -0.136376        -0.737981
 H        -1.698932         0.451663         1.835221
 H        -2.374915        -1.283452         1.612302
 H         0.965331        -1.650821         1.694413
 H        -0.601769        -1.749720        -1.553245
 H        -1.631616        -3.441408        -1.253047
