19
Iteration:  3139charge 0 multiplicity 1
 C         1.568740         0.609995        -0.025462
 C         0.091857         0.242937        -0.041796
 C        -1.036567         0.838848        -0.409291
 C        -2.213819        -0.176168        -0.240556
 C        -1.750131        -0.701505         1.249330
 C        -0.435095        -1.077168         0.456900
 O         0.346519        -2.043897         0.943389
 C        -1.356590        -1.500481        -0.788665
 O        -1.784558        -2.918869        -0.713011
 H         1.622733         1.641975        -0.404640
 H         1.782047         0.707640         1.060270
 H         2.173602        -0.135260        -0.536205
 H        -1.165203         1.961872        -0.712423
 H        -3.187896         0.219847        -0.575220
 H        -1.656487        -0.028359         2.101459
 H        -2.384742        -1.579382         1.593426
 H        -0.004026        -2.859578         0.667309
 H        -0.940382        -1.205323        -1.856465
 H        -2.601280        -3.027139        -1.300903
