19
Iteration:  2351
 C         1.524895         0.558001        -0.067037
 C         0.078509         0.280486         0.081405
 C        -1.070305         0.844977        -0.172641
 C        -2.221310        -0.284309         0.019626
 C        -1.623119        -0.825231         1.360718
 C        -0.403460        -1.110404         0.414751
 O         0.440945        -2.102181         0.774420
 C        -1.476176        -1.351604        -0.795154
 O        -1.921905        -2.738988        -0.990899
 H         1.811438         1.355919         0.582389
 H         2.053166        -0.398465         0.103464
 H         1.608269         0.978500        -1.083244
 H        -1.347213         1.856684        -0.282884
 H        -3.269291        -0.000980        -0.124197
 H        -1.570891        -0.140173         2.183265
 H        -1.880685        -1.742508         1.778023
 H         0.415133        -2.762173        -0.008628
 H        -0.938540        -1.132189        -1.758939
 H        -1.854346        -2.764411        -1.900195
