19
Iteration:  3997charge 0 multiplicity 1
 C         1.574384         0.611858         0.094729
 C         0.131642         0.217346        -0.214202
 C        -0.858298         0.476934        -1.181940
 C        -2.004410        -0.505211        -0.789405
 C        -1.895452        -0.358074         0.798978
 C        -0.469506        -0.995631         0.519410
 O         0.239404        -1.730658         1.516776
 C        -1.255523        -1.774678        -0.579237
 O        -2.130970        -2.768895        -0.160927
 H         1.822035         1.575462         0.542125
 H         1.990518        -0.116344         0.816577
 H         2.303978         0.451710        -0.830373
 H        -1.062759         1.485391        -1.680871
 H        -2.922756        -0.531857        -1.346273
 H        -1.958224         0.727692         1.145092
 H        -2.456632        -0.905334         1.450912
 H         1.061085        -2.122598         1.338578
 H        -0.455833        -2.146364        -1.351193
 H        -1.707578        -3.354555         0.582303
