19
Iteration:  4131charge 0 multiplicity 1
 C         1.626958         0.350084        -0.103633
 C         0.105760         0.207133        -0.265761
 C        -0.844022         0.560536        -1.148613
 C        -2.019150        -0.370963        -0.754227
 C        -1.955955        -0.290269         0.826090
 C        -0.540227        -0.901276         0.618465
 O         0.062672        -1.558717         1.734791
 C        -1.261615        -1.774697        -0.628290
 O        -1.812786        -2.987104        -0.153633
 H         2.028743        -0.675308        -0.309282
 H         1.998831         1.075870        -0.849945
 H         1.917110         0.638949         0.938604
 H        -0.602328         1.033683        -2.077207
 H        -2.977918        -0.166719        -1.286633
 H        -2.011502         0.648683         1.298857
 H        -2.660176        -1.049664         1.344977
 H         0.982046        -1.645821         1.606995
 H        -0.595347        -1.999729        -1.470076
 H        -2.387224        -3.349293        -0.862960
