19
Iteration:  2832charge 0 multiplicity 1
 C         1.443037         0.715058        -0.014521
 C         0.101760         0.132029         0.041927
 C        -1.009783         0.859254        -0.259788
 C        -2.191630        -0.130737         0.013609
 C        -1.746746        -0.906489         1.251187
 C        -0.398888        -1.198117         0.464524
 O         0.484906        -2.197913         0.869737
 C        -1.430676        -1.429127        -0.834224
 O        -1.949542        -2.674510        -1.090208
 H         1.913152         0.685657        -1.014205
 H         1.501593         1.841967         0.163491
 H         2.209244         0.226680         0.673556
 H        -1.226901         1.900378        -0.587606
 H        -3.258108         0.203556        -0.065510
 H        -1.594994        -0.412219         2.202837
 H        -2.363947        -1.883846         1.330303
 H         1.443624        -1.900456         0.981524
 H        -0.969259        -1.121598        -1.794506
 H        -2.386460        -2.959143        -0.205025
