19
Iteration:  1003charge 0 multiplicity 1
 C         1.484108         0.711972         0.147695
 C         0.092468         0.238936        -0.041903
 C        -0.957874         0.813656        -0.611537
 C        -2.121939        -0.210326        -0.202467
 C        -1.691452        -0.661808         1.260452
 C        -0.491474        -1.137161         0.404782
 O         0.379247        -2.208468         0.764938
 C        -1.442509        -1.478802        -0.759806
 O        -1.955086        -2.795076        -0.633557
 H         1.875296         0.842057         1.197417
 H         2.196935         0.154762        -0.307332
 H         1.603148         1.795304        -0.160276
 H        -1.173481         1.688826        -1.205003
 H        -3.131650        -0.152242        -0.600732
 H        -1.462267         0.117506         1.950143
 H        -2.334184        -1.500256         1.661495
 H         0.572572        -2.143729         1.691443
 H        -0.998147        -1.478631        -1.742966
 H        -1.357424        -3.456775        -0.837500
