19
Iteration:  1382
 C         1.532499         0.558968        -0.188912
 C        -0.001883         0.235547         0.072156
 C        -1.010200         0.825772        -0.520998
 C        -2.043818        -0.186560        -0.443120
 C        -2.003054        -0.654097         1.109438
 C        -0.487572        -1.189641         0.595378
 O         0.534856        -1.933779         1.210801
 C        -1.230874        -1.537932        -0.689387
 O        -1.997678        -2.793253        -0.739435
 H         1.878749         1.578526        -0.098567
 H         2.185751        -0.111986         0.474887
 H         1.698613         0.307668        -1.202638
 H        -0.905644         1.545579        -1.325644
 H        -2.988085        -0.044066        -1.000938
 H        -2.040911         0.119368         1.851720
 H        -2.587667        -1.560229         1.483548
 H         0.618863        -2.659616         0.636837
 H        -0.592591        -1.692628        -1.613282
 H        -1.885230        -3.330857         0.173934
