19
Iteration:  4505
 C         1.520734         0.586220        -0.065867
 C         0.258284        -0.056703        -0.305535
 C        -0.677951         0.367398        -1.264154
 C        -1.910102        -0.437820        -0.855339
 C        -1.981641        -0.207274         0.633446
 C        -0.542236        -0.975608         0.591568
 O        -0.052679        -1.417036         1.769339
 C        -1.230592        -1.842777        -0.572901
 O        -1.958482        -2.955453         0.025036
 H         1.443864         1.167042         0.875903
 H         2.461971         0.088587         0.023904
 H         1.715545         1.163845        -0.942973
 H        -0.400652         0.685590        -2.242972
 H        -2.783195        -0.441428        -1.515340
 H        -1.895127         0.921256         0.919732
 H        -2.683367        -0.641139         1.248119
 H         0.725235        -1.888377         1.676152
 H        -0.807011        -2.215184        -1.464312
 H        -1.811037        -2.944673         0.932276
