19
Iteration:   374
 C         1.519126         0.656134        -0.083076
 C         0.015671         0.241487         0.082816
 C        -1.035401         0.943336        -0.056216
 C        -2.156134        -0.149898        -0.021602
 C        -1.767416        -0.990243         1.200542
 C        -0.447576        -1.163651         0.356196
 O         0.450971        -2.250787         0.498958
 C        -1.372213        -1.348994        -0.800699
 O        -1.947359        -2.664336        -0.745058
 H         2.221424         0.216605         0.730837
 H         1.988028         0.362265        -1.075657
 H         1.621968         1.742108         0.123344
 H        -1.201636         2.009899        -0.169862
 H        -3.213138         0.106347        -0.265484
 H        -1.749496        -0.620988         2.209704
 H        -2.421833        -1.877723         1.228112
 H         0.775712        -2.084662         1.357106
 H        -0.870075        -1.144143        -1.792881
 H        -1.247734        -3.194261        -0.435239
