19
Iteration:   924charge 0 multiplicity 1
 C         1.493627         0.632580        -0.142043
 C         0.076922         0.199294        -0.002095
 C        -1.031599         0.791400        -0.331469
 C        -2.100881        -0.251322        -0.208507
 C        -1.834809        -0.852840         1.217165
 C        -0.363500        -1.188308         0.542072
 O         0.668605        -1.931589         1.072961
 C        -1.337926        -1.479580        -0.786086
 O        -2.218144        -2.642116        -0.867724
 H         1.576118         1.756028        -0.127281
 H         2.129776         0.377784         0.747347
 H         2.059629         0.053867        -0.902660
 H        -1.136505         1.510194        -1.173103
 H        -3.135395        -0.204512        -0.593492
 H        -1.918951        -0.041617         2.043643
 H        -2.434816        -1.763360         1.361187
 H         0.493380        -2.860023         1.116941
 H        -0.839721        -1.397167        -1.765612
 H        -1.783724        -3.320118        -1.326758
