19
Iteration:  1168
 C         1.546094         0.603212        -0.230166
 C         0.082440         0.251927        -0.068750
 C        -1.048568         0.884820        -0.378854
 C        -2.096301        -0.182947        -0.305966
 C        -1.835477        -0.784141         1.159505
 C        -0.464218        -1.133242         0.528575
 O         0.384645        -2.066832         1.136987
 C        -1.252855        -1.523419        -0.819052
 O        -1.905214        -2.741054        -0.543361
 H         1.868439         0.299048        -1.295185
 H         1.623095         1.625554         0.018918
 H         2.141245        -0.120591         0.415233
 H        -1.149021         1.883534        -0.872955
 H        -3.051492        -0.016564        -0.835145
 H        -1.914544        -0.037253         1.979848
 H        -2.541009        -1.665161         1.244032
 H         0.318407        -2.896236         0.639537
 H        -0.800144        -1.337891        -1.811995
 H        -2.293957        -3.063739        -1.456077
