19
Iteration:  2196
 C         1.495243         0.641987         0.178746
 C         0.089566         0.239866         0.075251
 C        -1.099003         0.813231        -0.349618
 C        -2.161853        -0.262835        -0.171387
 C        -1.717674        -0.766438         1.215007
 C        -0.464903        -1.192444         0.379366
 O         0.568030        -2.104360         0.564971
 C        -1.309320        -1.415097        -0.829572
 O        -2.036715        -2.683097        -0.583905
 H         2.089311        -0.097691        -0.433353
 H         1.684650         1.636710        -0.155022
 H         1.907917         0.616534         1.202419
 H        -1.236634         1.885374        -0.462952
 H        -3.261848        -0.056515        -0.329843
 H        -1.487659        -0.100884         2.008541
 H        -2.140593        -1.679210         1.518341
 H         0.124158        -2.921494         0.441954
 H        -0.794282        -1.237195        -1.813257
 H        -2.327140        -3.008772        -1.525851
