19
Iteration:   382charge 0 multiplicity 1
 C         1.511605         0.610606        -0.085153
 C         0.094078         0.238968         0.065202
 C        -1.129217         0.976353        -0.048913
 C        -2.160718        -0.152674        -0.087134
 C        -1.722801        -0.987799         1.244928
 C        -0.450574        -1.166206         0.394878
 O         0.483397        -2.254273         0.550660
 C        -1.349822        -1.333658        -0.787291
 O        -1.959239        -2.648382        -0.792136
 H         2.031290        -0.019333         0.533997
 H         1.735565         0.541417        -1.200731
 H         1.437745         1.700175         0.135213
 H        -1.214227         1.999742        -0.035893
 H        -3.199064        -0.052369        -0.405860
 H        -1.595941        -0.366046         2.220856
 H        -2.445699        -1.844034         1.301683
 H         0.763544        -2.362174         1.441546
 H        -1.077786        -0.990311        -1.814265
 H        -1.293226        -3.258769        -0.561082
