19
Iteration:    20charge 0 multiplicity 1
 C         1.662726         0.773651         0.180375
 C         0.133030         0.323067         0.165960
 C        -1.139847         0.902327         0.057540
 C        -2.180745        -0.258279        -0.102486
 C        -1.683599        -1.047318         1.208352
 C        -0.406870        -1.152121         0.289957
 O         0.476555        -2.269899         0.290875
 C        -1.371016        -1.342590        -0.868793
 O        -2.115658        -2.620583        -0.731007
 H         2.114409         0.207863         0.917410
 H         1.977021         0.581803        -0.855894
 H         1.657112         1.917810         0.339039
 H        -1.436910         1.932226         0.437792
 H        -3.235845        -0.060620        -0.336899
 H        -1.665394        -0.409290         2.123081
 H        -2.175870        -2.075617         1.347273
 H         0.591590        -2.599674         1.153996
 H        -1.096030        -1.248892        -1.940647
 H        -1.631341        -3.247208        -1.209322
