19
Iteration:  1328
 C         1.478846         0.580064        -0.018061
 C         0.093287         0.202787        -0.139592
 C        -1.054853         0.822044        -0.628784
 C        -2.104246        -0.276634        -0.271205
 C        -1.721774        -0.579395         1.168169
 C        -0.407212        -1.064432         0.493633
 O         0.381958        -2.020901         1.134250
 C        -1.371987        -1.567448        -0.793907
 O        -1.849670        -2.855213        -0.644712
 H         1.621791         1.656852        -0.208834
 H         1.782674         0.344048         1.096411
 H         2.276296         0.029556        -0.551792
 H        -1.095945         1.856849        -1.087799
 H        -3.176637        -0.042380        -0.378576
 H        -1.548040         0.260487         1.801232
 H        -2.287202        -1.545703         1.406856
 H        -0.293601        -2.549082         1.527855
 H        -0.942785        -1.398443        -1.834219
 H        -2.747487        -2.867717        -1.198516
