19
Iteration:  1917charge 0 multiplicity 1
 C         1.466358         0.557524         0.012750
 C         0.045653         0.239238         0.043639
 C        -1.008280         0.840906        -0.431351
 C        -2.164788        -0.180293        -0.188382
 C        -1.776831        -0.663404         1.234092
 C        -0.501221        -1.185217         0.395422
 O         0.545790        -2.080619         0.879635
 C        -1.379609        -1.449828        -0.799110
 O        -1.922132        -2.792113        -0.655695
 H         2.106977        -0.279634        -0.044644
 H         1.741852         1.232974        -0.885407
 H         1.839153         1.099293         0.907910
 H        -1.152379         1.857155        -0.835665
 H        -3.174871         0.052697        -0.603808
 H        -1.452596         0.194645         1.871063
 H        -2.323804        -1.504746         1.673656
 H         0.257750        -3.010684         0.605614
 H        -0.852044        -1.208552        -1.775394
 H        -2.101334        -3.242127        -1.568118
