19
Iteration:   488charge 0 multiplicity 1
 C         1.476209         0.637091         0.019399
 C         0.113992         0.262851         0.111877
 C        -1.133577         0.907439        -0.257388
 C        -2.114813        -0.252799        -0.104185
 C        -1.726749        -0.947367         1.166435
 C        -0.423477        -1.182043         0.391155
 O         0.674171        -2.115518         0.746598
 C        -1.344745        -1.402627        -0.820926
 O        -2.104724        -2.660022        -0.744215
 H         1.865377         0.703432        -1.037495
 H         1.807831         1.654781         0.236179
 H         2.188287         0.018672         0.621182
 H        -1.325913         1.932595        -0.540906
 H        -3.142858        -0.005121        -0.404132
 H        -1.821191        -0.359843         2.115744
 H        -2.192806        -1.910480         1.284579
 H         0.228848        -2.932315         0.799283
 H        -0.935005        -1.277525        -1.826469
 H        -2.896164        -2.550774        -1.237505
