19
Iteration:  1538charge 0 multiplicity 1
 C         1.545077         0.632549         0.108697
 C         0.105044         0.140384        -0.177188
 C        -1.032442         0.828543        -0.606209
 C        -2.145167        -0.164710        -0.344883
 C        -1.710121        -0.535052         1.131439
 C        -0.467058        -1.149893         0.455017
 O         0.467200        -2.053277         1.054339
 C        -1.371708        -1.553954        -0.810590
 O        -2.026018        -2.918427        -0.630929
 H         2.098140         0.721396        -0.880907
 H         1.582317         1.614272         0.514003
 H         2.025814         0.034532         0.883981
 H        -1.177127         1.928797        -0.789491
 H        -3.178774         0.003837        -0.661105
 H        -1.574644         0.435005         1.723389
 H        -2.275445        -1.356190         1.618201
 H        -0.030629        -2.322108         1.909437
 H        -1.154294        -1.353414        -1.895687
 H        -1.417929        -3.408100        -0.156419
