19
Iteration:  2594charge 0 multiplicity 1
 C         1.542525         0.559422        -0.044399
 C         0.068726         0.196042         0.113803
 C        -1.117381         0.861071        -0.094629
 C        -2.217299        -0.248729         0.118146
 C        -1.680851        -0.947805         1.344043
 C        -0.418755        -1.196655         0.368035
 O         0.636276        -2.014785         0.741843
 C        -1.514822        -1.315489        -0.825300
 O        -1.989061        -2.666740        -1.111458
 H         1.685749         1.465918        -0.665720
 H         1.971986         0.817530         0.972508
 H         2.082885        -0.337721        -0.319088
 H        -1.330380         1.870371        -0.400803
 H        -3.263010         0.082569        -0.113077
 H        -1.346635        -0.358623         2.127422
 H        -2.310273        -1.790957         1.695877
 H         0.433548        -3.038169         0.827782
 H        -1.032423        -0.846783        -1.711555
 H        -2.148608        -2.716446        -2.138307
