19
Iteration:  1119
 C         1.481399         0.476907        -0.140026
 C         0.103594         0.222214        -0.001387
 C        -1.087320         0.775430        -0.526254
 C        -2.206204        -0.266098        -0.177757
 C        -1.757505        -0.688083         1.242835
 C        -0.443994        -1.115096         0.536587
 O         0.547214        -2.005522         1.084968
 C        -1.316459        -1.488556        -0.756566
 O        -2.027679        -2.673369        -0.868697
 H         1.989833        -0.287403        -0.720916
 H         1.578064         1.528414        -0.625745
 H         2.054366         0.398007         0.775417
 H        -1.196291         1.637075        -1.222418
 H        -3.251732        -0.260627        -0.493165
 H        -1.622908         0.192779         1.884082
 H        -2.378321        -1.497233         1.645925
 H         0.247505        -2.188776         2.002775
 H        -0.628829        -1.276480        -1.590552
 H        -1.349207        -3.245478        -1.120442
