19
Iteration:  1294
 C         1.558103         0.722346         0.051388
 C         0.103739         0.160840        -0.011249
 C        -0.931334         0.786537        -0.599218
 C        -2.075232        -0.285621        -0.359238
 C        -1.899434        -0.665416         1.138408
 C        -0.428484        -1.105099         0.461877
 O         0.555042        -2.005422         0.951486
 C        -1.367714        -1.599296        -0.752255
 O        -2.137089        -2.746350        -0.525900
 H         1.668816         1.525038        -0.638110
 H         1.653715         1.246678         1.105935
 H         2.367312         0.008347        -0.050926
 H        -0.911186         1.595075        -1.391664
 H        -3.131484        -0.262750        -0.671968
 H        -1.892968         0.149547         1.868103
 H        -2.615521        -1.390685         1.551706
 H         0.180808        -2.827792         1.186127
 H        -0.854027        -1.551176        -1.760141
 H        -1.628528        -3.497821        -1.034805
