19
Iteration:  1427charge 0 multiplicity 1
 C         1.542931         0.603857        -0.059480
 C         0.122096         0.272379        -0.108728
 C        -1.008494         0.787246        -0.632264
 C        -2.135281        -0.244218        -0.353947
 C        -1.702793        -0.724227         1.149415
 C        -0.443172        -1.092928         0.454032
 O         0.285429        -2.026182         1.299538
 C        -1.335663        -1.565590        -0.818988
 O        -2.029090        -2.757350        -0.622788
 H         1.673085         1.737208         0.026191
 H         1.930189         0.190744         0.893656
 H         2.145642         0.376028        -0.930381
 H        -1.154807         1.573802        -1.308729
 H        -3.175678        -0.052303        -0.633687
 H        -1.568572        -0.002627         1.943107
 H        -2.448462        -1.576116         1.410898
 H         1.196940        -1.982657         1.045095
 H        -0.807459        -1.499796        -1.864051
 H        -1.341641        -3.530539        -0.833715
