19
Iteration:  1133
 C         1.561798         0.528461        -0.201371
 C         0.020078         0.211719         0.061949
 C        -1.032800         0.802082        -0.477882
 C        -2.073137        -0.255843        -0.250510
 C        -1.809754        -0.715904         1.259091
 C        -0.463501        -1.124163         0.558666
 O         0.486975        -1.963231         1.089387
 C        -1.369720        -1.451648        -0.842499
 O        -1.974074        -2.760414        -0.776077
 H         1.704457        -0.118825        -1.144361
 H         1.744671         1.544524        -0.504829
 H         2.134346         0.297489         0.726135
 H        -1.100296         1.697410        -1.028298
 H        -3.035292         0.161649        -0.573080
 H        -1.775261         0.032391         2.069565
 H        -2.372317        -1.697143         1.663285
 H         0.145433        -2.410812         1.844077
 H        -1.138452        -1.234957        -1.892434
 H        -1.467957        -3.490307        -1.331476
