19
Iteration:  3628charge 0 multiplicity 1
 C         1.557133         0.569894        -0.154601
 C         0.102196         0.206403        -0.165458
 C        -0.967915         0.696776        -0.836476
 C        -2.072933        -0.259019        -0.516995
 C        -1.978747        -0.514689         1.057220
 C        -0.455838        -1.059609         0.615386
 O         0.375861        -1.907507         1.442724
 C        -1.193326        -1.599921        -0.659218
 O        -2.012863        -2.812878        -0.522668
 H         1.825542         0.518924         0.926300
 H         2.106199        -0.310197        -0.588255
 H         1.777014         1.544856        -0.685160
 H        -0.844604         1.457081        -1.612119
 H        -3.154271        -0.148891        -0.862827
 H        -1.939339         0.469917         1.679812
 H        -2.639667        -1.288271         1.402613
 H         0.207634        -2.821560         1.164329
 H        -0.531607        -1.685055        -1.548090
 H        -1.466146        -3.544941        -0.532496
