19
Iteration:  1873charge 0 multiplicity 1
 C         1.505840         0.501354        -0.183019
 C         0.034661         0.251079         0.003363
 C        -1.055480         0.904014        -0.444037
 C        -2.168019        -0.129497        -0.180674
 C        -1.773047        -0.805440         1.252208
 C        -0.483122        -1.140563         0.497683
 O         0.378174        -2.050920         1.040444
 C        -1.330188        -1.461674        -0.824980
 O        -1.714240        -2.764864        -0.717050
 H         1.826696         0.146151        -1.124528
 H         1.858964         1.592849        -0.102844
 H         2.171273        -0.008821         0.515133
 H        -1.060691         1.916102        -0.863439
 H        -3.260653         0.071399        -0.258042
 H        -1.732549        -0.115139         2.123163
 H        -2.402710        -1.692171         1.323714
 H        -0.194298        -2.902443         1.082935
 H        -0.961507        -1.354370        -1.877292
 H        -2.583352        -2.893960        -1.306378
