19
Iteration:  4984
 C         1.557712         0.554525        -0.022311
 C         0.224822        -0.014717        -0.305496
 C        -0.540834         0.059358        -1.496785
 C        -1.744891        -0.786210        -1.099124
 C        -2.044660        -0.117430         0.349575
 C        -0.658626        -0.774168         0.664100
 O        -0.145095        -1.249668         1.832691
 C        -1.150763        -1.942699        -0.324858
 O        -2.057708        -2.768533         0.271767
 H         1.730827         0.961335         0.965539
 H         2.212442        -0.343817        -0.089339
 H         1.877329         1.332135        -0.697753
 H        -0.125245         0.472476        -2.477907
 H        -2.661054        -0.874406        -1.746626
 H        -2.128693         1.011812         0.361640
 H        -2.743092        -0.668184         0.824499
 H         0.396526        -0.491010         2.186360
 H        -0.358416        -2.387899        -0.919985
 H        -1.650251        -3.321543         0.902166
