19
Iteration:  4306
 C         1.481501         0.484136        -0.050382
 C         0.095985         0.087671        -0.275045
 C        -0.801020         0.542613        -1.151014
 C        -1.861920        -0.462260        -0.804360
 C        -1.887867        -0.253020         0.693940
 C        -0.545307        -0.997187         0.605735
 O         0.062653        -1.577890         1.671846
 C        -1.106215        -1.807271        -0.548282
 O        -2.049306        -2.915119        -0.128504
 H         1.519669         0.950855         0.922936
 H         2.188848        -0.317032        -0.246737
 H         1.867218         1.211234        -0.739523
 H        -0.723094         1.094684        -2.105138
 H        -2.815904        -0.472165        -1.369779
 H        -1.856203         0.800037         0.909216
 H        -2.689097        -0.848393         1.176409
 H         1.058073        -1.279248         1.625803
 H        -0.381991        -2.179789        -1.211469
 H        -1.859407        -3.073034         0.847011
