19
Iteration:  3660charge 0 multiplicity 1
 C         1.551953         0.635191        -0.138931
 C         0.159830         0.185825        -0.048240
 C        -0.863634         0.575102        -0.780670
 C        -2.021905        -0.288900        -0.557258
 C        -1.981344        -0.523926         1.007687
 C        -0.448472        -1.030682         0.531149
 O         0.308245        -1.798835         1.372823
 C        -1.222129        -1.647589        -0.724063
 O        -2.037745        -2.851030        -0.399155
 H         2.187264        -0.096452         0.361961
 H         1.679505         0.624621        -1.230550
 H         1.782967         1.668951         0.246291
 H        -0.831287         1.547768        -1.205231
 H        -3.071033        -0.139557        -0.978318
 H        -1.988331         0.508369         1.586011
 H        -2.596392        -1.269978         1.495204
 H        -0.122932        -2.753739         1.476687
 H        -0.733657        -1.796275        -1.649929
 H        -1.686431        -3.614785        -1.011036
