19
Iteration:   613charge 0 multiplicity 1
 C         1.525021         0.769963        -0.055539
 C         0.143369         0.243945         0.089251
 C        -1.057444         0.859200        -0.196533
 C        -2.140759        -0.260589        -0.157613
 C        -1.727409        -0.962754         1.146609
 C        -0.327664        -1.186391         0.460772
 O         0.718784        -2.124257         0.865510
 C        -1.395943        -1.485875        -0.842943
 O        -2.371129        -2.611992        -0.859983
 H         1.787191         1.731768         0.355165
 H         2.334363         0.114651         0.390070
 H         1.852264         0.920324        -1.101448
 H        -1.304569         1.818194        -0.484531
 H        -3.151179        -0.030119        -0.452710
 H        -1.849155        -0.382461         2.108863
 H        -2.268460        -2.015253         1.225699
 H         0.731911        -2.191592         1.799285
 H        -0.826938        -1.426942        -1.770075
 H        -2.061935        -3.352083        -1.366636
