19
Iteration:   597
 C         1.547032         0.795310         0.021040
 C         0.027340         0.269765         0.155970
 C        -1.008187         0.867048        -0.264897
 C        -2.021223        -0.247756        -0.193873
 C        -1.764206        -0.945407         1.229573
 C        -0.393607        -1.307727         0.427299
 O         0.737274        -2.099493         0.783642
 C        -1.439267        -1.516240        -0.917601
 O        -2.285126        -2.612996        -0.741519
 H         1.426728         1.861040         0.312826
 H         2.199337         0.165359         0.577371
 H         1.834602         0.718432        -1.036458
 H        -1.117513         1.858641        -0.852865
 H        -3.110947        -0.016756        -0.368280
 H        -1.522110        -0.229749         1.997823
 H        -2.442406        -1.705391         1.358982
 H         0.468668        -2.651413         1.519239
 H        -1.198181        -1.294030        -1.980493
 H        -2.103869        -3.151975        -1.566345
