19
Iteration:  2854charge 0 multiplicity 1
 C         1.489438         0.652688        -0.067308
 C         0.053200         0.293086         0.146102
 C        -1.135063         0.901123        -0.171145
 C        -2.090877        -0.328046        -0.172477
 C        -1.716221        -0.959169         1.248075
 C        -0.384297        -1.230313         0.443907
 O         0.567821        -2.174856         0.921263
 C        -1.301103        -1.442631        -0.821917
 O        -2.144199        -2.568979        -1.063007
 H         1.736323         1.095494        -1.060120
 H         1.772563         1.555993         0.612234
 H         2.259835        -0.167045         0.205791
 H        -1.260808         1.948280        -0.646310
 H        -3.135651        -0.203946        -0.547600
 H        -1.694059        -0.203539         2.015213
 H        -2.421665        -1.842490         1.480505
 H         1.337332        -1.612175         1.044599
 H        -0.791481        -1.373217        -1.798142
 H        -2.524370        -2.808918        -0.186066
