19
Iteration:  3165charge 0 multiplicity 1
 C         1.495066         0.516915         0.034696
 C         0.053806         0.259376        -0.044003
 C        -1.129490         0.806839        -0.472827
 C        -2.182869        -0.225295        -0.196730
 C        -1.766472        -0.676862         1.174436
 C        -0.430561        -1.163329         0.423821
 O         0.484762        -2.026086         0.998352
 C        -1.295008        -1.491079        -0.832551
 O        -1.851213        -2.747151        -0.665177
 H         1.709426         1.633754         0.316629
 H         1.924423        -0.118290         0.837526
 H         1.863969         0.251467        -0.987409
 H        -1.247334         1.703516        -0.988211
 H        -3.234128         0.106865        -0.361419
 H        -1.648877         0.126069         1.966926
 H        -2.480919        -1.349438         1.582197
 H         0.362917        -2.943571         0.733408
 H        -0.838053        -1.200091        -1.868611
 H        -2.432699        -3.021337        -1.472240
