19
Iteration:  1721
 C         1.516061         0.728993         0.132780
 C         0.147989         0.227544        -0.077998
 C        -1.003196         0.849798        -0.558608
 C        -2.063436        -0.238215        -0.333641
 C        -1.762393        -0.822876         1.120937
 C        -0.445321        -1.161655         0.409795
 O         0.386133        -2.174805         0.849096
 C        -1.335224        -1.480558        -0.872115
 O        -2.092619        -2.681709        -0.458077
 H         1.515012         1.438187         0.895020
 H         2.273130         0.019334         0.633607
 H         1.987551         1.178215        -0.729561
 H        -0.987167         1.835926        -0.979697
 H        -3.094437         0.052345        -0.614675
 H        -2.000105        -0.036564         1.808675
 H        -2.329932        -1.691564         1.344945
 H         0.828697        -1.969811         1.702564
 H        -1.015678        -1.711280        -1.875435
 H        -1.494951        -3.515145        -0.178862
