19
Iteration:  3893
 C         1.570075         0.444785        -0.170138
 C         0.143210         0.218669        -0.136030
 C        -0.793260         0.618215        -0.970384
 C        -2.035642        -0.317670        -0.661719
 C        -2.007905        -0.436135         0.886099
 C        -0.559173        -1.021267         0.597071
 O         0.182417        -1.656947         1.620610
 C        -1.244244        -1.706368        -0.654450
 O        -1.941177        -2.931378        -0.362118
 H         2.166161        -0.311488        -0.746181
 H         1.813689         1.377353        -0.727241
 H         2.024885         0.608892         0.768085
 H        -0.756578         1.386006        -1.828568
 H        -2.967591        -0.266888        -1.219147
 H        -2.029762         0.465275         1.504037
 H        -2.702555        -1.263761         1.307215
 H         1.141405        -1.973133         1.327419
 H        -0.704682        -1.826246        -1.553454
 H        -1.694469        -3.245211         0.495047
