19
Iteration:  3758
 C         1.592823         0.645184         0.058228
 C         0.163858         0.154324        -0.161358
 C        -0.921311         0.588186        -1.018072
 C        -2.010569        -0.382442        -0.654153
 C        -1.859622        -0.524350         0.963870
 C        -0.491761        -0.983958         0.573107
 O         0.305225        -1.767932         1.395182
 C        -1.269004        -1.694754        -0.677348
 O        -2.005495        -2.857788        -0.324355
 H         1.610169         1.451601        -0.652939
 H         1.770198         0.862970         1.095057
 H         2.225780        -0.215362        -0.302908
 H        -0.989210         1.590804        -1.360864
 H        -2.965015        -0.262170        -1.268360
 H        -1.898208         0.511270         1.561506
 H        -2.578079        -1.137997         1.476015
 H         0.317760        -2.762687         1.048695
 H        -0.775243        -1.918659        -1.580782
 H        -2.921311        -2.598759        -0.018983
