19
Iteration:  4839
 C         1.616816         0.362311        -0.063427
 C         0.244893        -0.081552        -0.384079
 C        -0.662306         0.159731        -1.451487
 C        -1.875138        -0.537851        -0.942230
 C        -2.061159        -0.119792         0.474077
 C        -0.636818        -0.734946         0.668905
 O        -0.220402        -1.161672         1.863039
 C        -1.130552        -1.903439        -0.406484
 O        -1.873205        -2.866370         0.235630
 H         2.323748        -0.161258        -0.691676
 H         1.843073         1.453635        -0.111684
 H         1.840937        -0.141945         0.875484
 H        -0.500627         0.483467        -2.559822
 H        -2.737683        -0.545679        -1.605024
 H        -1.984672         1.014253         0.465732
 H        -2.888285        -0.550302         0.998419
 H         0.653956        -1.718275         1.834571
 H        -0.322459        -2.224521        -1.086349
 H        -1.658986        -3.737980        -0.270298
