19
Iteration:  4267charge 0 multiplicity 1
 C         1.625796         0.625130         0.053333
 C         0.269501         0.090103        -0.282839
 C        -0.738891         0.307841        -1.173157
 C        -1.972340        -0.423362        -0.708901
 C        -1.991537        -0.289792         0.731050
 C        -0.581779        -0.917465         0.563450
 O         0.130790        -1.610311         1.536378
 C        -1.295044        -1.826111        -0.555072
 O        -2.082089        -2.871470        -0.121747
 H         1.408161         1.743118         0.332197
 H         2.073160         0.364041         1.057427
 H         2.322909         0.680826        -0.814668
 H        -0.583003         0.491671        -2.288275
 H        -2.864299        -0.330847        -1.272562
 H        -2.176309         0.778480         1.196974
 H        -2.646622        -0.966408         1.190671
 H         0.929756        -1.061674         1.919269
 H        -0.660229        -2.134222        -1.516087
 H        -1.348181        -3.518417         0.172758
