19
Iteration:   358
 C         1.578316         0.724449         0.036534
 C         0.116690         0.279911         0.159008
 C        -1.027088         0.860390        -0.119832
 C        -2.173163        -0.134470         0.014465
 C        -1.769896        -1.001603         1.251154
 C        -0.440303        -1.148357         0.324446
 O         0.431852        -2.253313         0.466021
 C        -1.454478        -1.369163        -0.898183
 O        -1.962539        -2.680976        -0.749271
 H         2.022689         0.566823         0.962406
 H         1.942447         0.038017        -0.755240
 H         1.488410         1.743590        -0.405145
 H        -1.238380         1.778657        -0.722037
 H        -3.193422         0.202726        -0.099734
 H        -1.708538        -0.374199         2.215161
 H        -2.318232        -1.973326         1.351143
 H         1.175689        -2.150365         1.069901
 H        -1.310837        -1.075318        -1.954404
 H        -1.294226        -3.210834        -0.230433
