19
Iteration:  4766
 C         1.569271         0.558621        -0.114378
 C         0.280369        -0.035269        -0.401116
 C        -0.593095         0.119798        -1.335830
 C        -1.789336        -0.683979        -0.951122
 C        -2.010787        -0.286179         0.558984
 C        -0.531581        -0.905390         0.648926
 O        -0.070000        -1.152857         1.934753
 C        -1.117188        -1.946177        -0.413350
 O        -2.209656        -2.761071        -0.028689
 H         2.130040         0.049675         0.731345
 H         2.022045         0.301340        -1.109160
 H         1.635221         1.659774         0.134492
 H        -0.641533         0.919431        -2.124255
 H        -2.745600        -0.709053        -1.572825
 H        -2.065213         0.905000         0.717997
 H        -2.749316        -0.827398         1.133962
 H         0.863522        -0.891910         1.928755
 H        -0.413880        -2.518802        -1.086384
 H        -2.229883        -2.978693         0.998754
