19
Iteration:  2055charge 0 multiplicity 1
 C         1.490418         0.539907        -0.070343
 C         0.021649         0.234091         0.035314
 C        -1.137828         0.962618        -0.277462
 C        -2.098270        -0.216096        -0.219779
 C        -1.730923        -0.907402         1.211654
 C        -0.432403        -1.139299         0.408326
 O         0.550966        -2.108485         0.816000
 C        -1.321974        -1.380275        -0.824156
 O        -1.989065        -2.675375        -0.658793
 H         1.709068         1.560912         0.352917
 H         1.860786        -0.274140         0.504861
 H         1.750912         0.478583        -1.149587
 H        -1.114268         2.044477        -0.426088
 H        -3.184701        -0.014117        -0.397214
 H        -1.636364        -0.134507         1.980910
 H        -2.353622        -1.782044         1.369396
 H        -0.015212        -2.690858         1.261783
 H        -0.855277        -1.295398        -1.817834
 H        -1.595787        -3.333480        -1.232905
