19
Iteration:   897charge 0 multiplicity 1
 C         1.468598         0.597245        -0.146923
 C         0.105362         0.171750         0.005999
 C        -1.065187         0.827416        -0.418014
 C        -2.151807        -0.195169        -0.104885
 C        -1.682589        -0.745657         1.267643
 C        -0.419180        -1.157304         0.468472
 O         0.434554        -2.023198         1.049408
 C        -1.400632        -1.433640        -0.798224
 O        -1.924246        -2.781295        -0.853263
 H         1.534233         1.369265        -0.905648
 H         2.018493         1.138637         0.769626
 H         1.933507        -0.378113        -0.337741
 H        -1.141236         1.908151        -0.554913
 H        -3.233792        -0.051254        -0.264467
 H        -1.576185        -0.013727         2.055882
 H        -2.289471        -1.636348         1.560083
 H         0.204678        -2.919000         0.900628
 H        -1.009836        -1.156433        -1.789648
 H        -1.817291        -3.029815        -1.730937
