19
Iteration:  3182charge 0 multiplicity 1
 C         1.443168         0.525206         0.014855
 C         0.024084         0.277702         0.018000
 C        -1.015842         0.851723        -0.529883
 C        -2.113143        -0.186138        -0.278567
 C        -1.761749        -0.821658         1.202409
 C        -0.481882        -1.115936         0.513651
 O         0.560019        -1.969917         0.956807
 C        -1.325967        -1.491244        -0.770510
 O        -1.980803        -2.756862        -0.643730
 H         1.617416         1.448734         0.505648
 H         2.016871        -0.303201         0.418036
 H         1.903551         0.736257        -0.955996
 H        -1.025066         1.753807        -1.276715
 H        -3.131855        -0.175733        -0.674416
 H        -1.714166        -0.127687         2.044213
 H        -2.204791        -1.847464         1.383597
 H         0.086618        -2.870326         0.903828
 H        -0.702892        -1.290140        -1.651575
 H        -2.292840        -3.028744        -1.609197
