19
Iteration:  1563
 C         1.534066         0.589948        -0.041671
 C         0.041304         0.220376        -0.023729
 C        -1.011056         0.698732        -0.704353
 C        -2.093544        -0.238189        -0.244099
 C        -1.761370        -0.543715         1.272782
 C        -0.533086        -1.112947         0.543879
 O         0.361764        -2.065034         0.991897
 C        -1.281118        -1.498761        -0.730665
 O        -1.933305        -2.791789        -0.736262
 H         2.064639         0.154024        -0.898703
 H         1.749002         1.669548         0.002661
 H         1.947053         0.170890         0.951087
 H        -1.151701         1.350318        -1.497287
 H        -3.120544         0.007635        -0.570873
 H        -1.686265         0.418960         1.848491
 H        -2.343249        -1.342856         1.695041
 H        -0.097761        -2.266471         1.893520
 H        -0.750408        -1.269879        -1.693836
 H        -1.172615        -3.435531        -0.565366
