19
Iteration:   369charge 0 multiplicity 1
 C         1.504471         0.676884        -0.048226
 C         0.102509         0.228311         0.111488
 C        -1.068419         0.944970        -0.075565
 C        -2.150524        -0.152297         0.014981
 C        -1.804464        -0.986383         1.197208
 C        -0.446728        -1.191872         0.333430
 O         0.430874        -2.236109         0.477784
 C        -1.404315        -1.364741        -0.845081
 O        -1.947441        -2.659392        -0.733326
 H         2.195745         0.372161         0.680453
 H         2.049723         0.290044        -0.916814
 H         1.752675         1.763124        -0.019408
 H        -1.175349         2.002702        -0.386402
 H        -3.152453         0.221641        -0.123408
 H        -1.779080        -0.572830         2.269305
 H        -2.271287        -1.993550         1.183608
 H         0.927616        -2.044677         1.356024
 H        -0.878565        -1.231605        -1.789538
 H        -1.165154        -3.206253        -0.316376
