19
Iteration:  3477
 C         1.483102         0.663652         0.083663
 C         0.093321         0.252234        -0.092378
 C        -0.986712         0.652144        -0.742947
 C        -2.099731        -0.306194        -0.498003
 C        -1.817536        -0.561011         1.132423
 C        -0.451923        -1.122865         0.446966
 O         0.359994        -2.047574         1.177098
 C        -1.332707        -1.576482        -0.736646
 O        -1.933075        -2.793462        -0.489588
 H         2.131723        -0.160977         0.433046
 H         1.950983         0.980518        -0.923774
 H         1.807517         1.517724         0.697224
 H        -0.933517         1.568727        -1.427052
 H        -3.093511        -0.009760        -0.942958
 H        -1.802246         0.304479         1.876052
 H        -2.506241        -1.274584         1.480773
 H         0.937655        -1.689990         1.842175
 H        -0.700377        -1.601417        -1.674507
 H        -2.241421        -3.070643        -1.342991
