19
Iteration:  2900
 C         1.556647         0.642361         0.030836
 C         0.053895         0.204426        -0.053668
 C        -1.119728         0.955675        -0.300074
 C        -2.141024        -0.161737        -0.075919
 C        -1.765915        -0.924226         1.264006
 C        -0.451279        -1.202700         0.467535
 O         0.586581        -2.154020         0.924920
 C        -1.418276        -1.426484        -0.790289
 O        -1.990521        -2.715366        -1.052054
 H         1.523499         1.774640         0.129762
 H         2.053228         0.201696         0.960979
 H         2.063148         0.192808        -0.860053
 H        -1.135528         1.932045        -0.898000
 H        -3.179515        -0.094418        -0.304836
 H        -1.569375        -0.327561         2.143857
 H        -2.361742        -1.913286         1.437050
 H         1.296511        -1.652199         1.207691
 H        -1.162181        -1.138511        -1.765083
 H        -2.594946        -2.983975        -0.414734
