19
Iteration:  1947
 C         1.537913         0.730036         0.086300
 C         0.182389         0.236175         0.022630
 C        -0.986063         0.833264        -0.423533
 C        -2.123325        -0.254573        -0.201882
 C        -1.819178        -0.808922         1.138262
 C        -0.457394        -1.163672         0.413929
 O         0.642694        -2.041895         0.787173
 C        -1.391011        -1.557888        -0.772482
 O        -2.187186        -2.708831        -0.607673
 H         2.182825         0.058248         0.685131
 H         2.033571         1.090024        -0.854782
 H         1.541783         1.710390         0.643115
 H        -1.064819         1.808844        -0.977543
 H        -3.129040        -0.003108        -0.614139
 H        -1.896175        -0.110908         2.023734
 H        -2.252002        -1.838511         1.402576
 H         0.232391        -2.917000         0.942951
 H        -0.875651        -1.541877        -1.769156
 H        -2.337670        -3.279765        -1.385573
