19
Iteration:  1878
 C         1.546872         0.519301        -0.166772
 C         0.008215         0.283539        -0.032426
 C        -1.052125         0.908247        -0.485041
 C        -2.163958        -0.153447        -0.135069
 C        -1.774097        -0.807555         1.274267
 C        -0.476251        -1.129724         0.467217
 O         0.328669        -2.061035         1.022886
 C        -1.311155        -1.468736        -0.798139
 O        -1.714335        -2.753046        -0.723853
 H         1.870683        -0.098522        -1.096866
 H         1.839535         1.536730        -0.131548
 H         2.047825        -0.031140         0.668755
 H        -1.168084         1.909490        -0.884781
 H        -3.201082         0.082170        -0.370300
 H        -1.716726        -0.239521         2.199170
 H        -2.212618        -1.825569         1.445468
 H        -0.137944        -2.858026         1.110739
 H        -1.000128        -1.293043        -1.829811
 H        -2.431313        -2.835520        -1.253339
