19
Iteration:  2941charge 0 multiplicity 1
 C         1.505755         0.679899         0.057771
 C         0.074298         0.285175         0.069270
 C        -1.113002         0.920313        -0.323292
 C        -2.191925        -0.235159        -0.161618
 C        -1.675988        -0.755295         1.312943
 C        -0.460024        -1.228065         0.431501
 O         0.369601        -2.334794         0.780711
 C        -1.375831        -1.374995        -0.822506
 O        -1.883493        -2.718343        -0.915342
 H         1.691226         1.427769         0.891507
 H         2.191081        -0.260313         0.031828
 H         1.680316         1.294715        -0.906452
 H        -1.226885         1.792619        -1.111307
 H        -3.207022        -0.082306        -0.580541
 H        -1.553367        -0.011779         2.049305
 H        -2.292383        -1.526193         1.846204
 H         1.266509        -1.918262         1.073628
 H        -0.854798        -1.028137        -1.785126
 H        -1.599737        -3.217643        -0.011318
