19
Iteration:  2751charge 0 multiplicity 1
 C         1.563613         0.685892         0.147547
 C         0.123012         0.186299         0.216057
 C        -1.050376         0.842245        -0.179740
 C        -2.166916        -0.231357        -0.067919
 C        -1.786085        -0.936066         1.134048
 C        -0.438879        -1.199609         0.335982
 O         0.629902        -2.066347         0.674153
 C        -1.384717        -1.393027        -0.896955
 O        -2.170644        -2.636694        -0.830070
 H         2.098731         0.152609         0.998456
 H         2.089913         0.602900        -0.827795
 H         1.466048         1.822251         0.334449
 H        -1.293343         1.798970        -0.761849
 H        -3.190099         0.009226        -0.267785
 H        -1.849563        -0.466723         2.151393
 H        -2.128744        -1.899862         1.302881
 H         0.822992        -2.518100        -0.177463
 H        -1.080699        -1.180115        -2.001387
 H        -1.562409        -3.386273        -0.404189
