19
Iteration:  1556
 C         1.482559         0.590491        -0.008901
 C         0.083419         0.211408        -0.038051
 C        -0.989344         0.754971        -0.670665
 C        -2.115047        -0.277107        -0.258713
 C        -1.727738        -0.494782         1.226383
 C        -0.496128        -1.096389         0.483565
 O         0.380420        -2.071706         1.004447
 C        -1.370375        -1.551394        -0.710903
 O        -1.932040        -2.815363        -0.738923
 H         2.042447         0.288779        -0.875791
 H         1.721564         1.712985         0.178343
 H         1.840949         0.084829         0.883601
 H        -1.084864         1.533525        -1.499470
 H        -3.112997         0.069167        -0.524904
 H        -1.565650         0.331195         1.843618
 H        -2.396971        -1.256852         1.715451
 H        -0.076299        -2.316931         1.879959
 H        -0.691948        -1.438118        -1.539546
 H        -1.222421        -3.331048        -0.464502
