19
Iteration:  4887
 C         1.658963         0.322376        -0.192577
 C         0.191287         0.053715        -0.292544
 C        -0.632512         0.169259        -1.304336
 C        -1.809200        -0.695857        -0.974642
 C        -2.099951        -0.131916         0.411338
 C        -0.640481        -0.784921         0.652537
 O        -0.061821        -1.001076         1.910079
 C        -1.068326        -1.967928        -0.381805
 O        -1.966329        -2.925495         0.168127
 H         2.103953         0.828638        -1.070327
 H         1.713380         0.971108         0.678208
 H         2.196835        -0.601219         0.011739
 H        -0.509746         0.677396        -2.239252
 H        -2.552014        -0.764709        -1.815101
 H        -2.295528         1.020644         0.512310
 H        -2.875505        -0.863366         0.843307
 H        -0.543994        -1.721415         2.352029
 H        -0.250093        -2.294344        -0.996390
 H        -2.697119        -2.850287        -0.372822
