19
Iteration:  4047
 C         1.579255         0.605641        -0.058909
 C         0.192087         0.039286        -0.309972
 C        -0.730187         0.372663        -1.178362
 C        -1.973755        -0.404612        -0.676725
 C        -1.896456        -0.300159         0.864939
 C        -0.574276        -0.980434         0.589329
 O         0.145030        -1.578838         1.717899
 C        -1.338738        -1.707184        -0.591978
 O        -2.028982        -2.891961        -0.229107
 H         1.857308         0.719506         1.025055
 H         2.404439        -0.011715        -0.497196
 H         1.633560         1.530194        -0.556167
 H        -0.818898         1.279453        -1.672970
 H        -2.875551        -0.292072        -1.372644
 H        -1.870778         0.638029         1.452690
 H        -2.666685        -1.076862         1.315838
 H         0.825407        -2.216434         1.327070
 H        -0.784144        -1.820806        -1.578997
 H        -1.629881        -3.578378        -0.766752
