19
Iteration:   538charge 0 multiplicity 1
 C         1.471925         0.661383         0.225019
 C        -0.008824         0.262281        -0.022418
 C        -1.089690         0.883143        -0.362724
 C        -2.204402        -0.119430        -0.061760
 C        -1.545845        -0.679423         1.227597
 C        -0.431793        -1.144424         0.338429
 O         0.414896        -2.232996         0.619282
 C        -1.474610        -1.454662        -0.793831
 O        -1.786276        -2.840816        -0.688002
 H         1.992058         1.460855        -0.338870
 H         1.803107         0.948036         1.249852
 H         2.172307        -0.158239         0.023408
 H        -1.211925         1.900113        -0.730842
 H        -3.237430         0.213199        -0.106828
 H        -1.230924        -0.094926         2.079747
 H        -2.107287        -1.546463         1.688827
 H         0.005165        -2.950073         0.021092
 H        -1.353067        -1.204807        -1.876815
 H        -2.444829        -3.163175        -1.394137
