19
Iteration:  4072
 C         1.609033         0.525182        -0.187719
 C         0.158488         0.207968        -0.213500
 C        -0.863072         0.554585        -1.028345
 C        -1.964267        -0.420588        -0.696317
 C        -1.858451        -0.331041         0.806263
 C        -0.513845        -0.974418         0.584918
 O         0.036424        -1.582460         1.757709
 C        -1.130616        -1.891883        -0.547002
 O        -2.078900        -2.909544        -0.274666
 H         2.097971         0.185372         0.688141
 H         2.197001         0.177743        -1.051898
 H         1.619646         1.651462        -0.156008
 H        -0.603423         0.798717        -2.138613
 H        -2.925177        -0.199052        -1.166421
 H        -1.750785         0.817333         1.098035
 H        -2.592225        -0.866551         1.324179
 H         1.016486        -2.011836         1.587808
 H        -0.522561        -2.169848        -1.319228
 H        -2.082853        -3.407338        -1.051825
