19
Iteration:   309
 C         1.458999         0.763884         0.215127
 C         0.083139         0.181879        -0.147997
 C        -1.124483         0.848311        -0.231391
 C        -2.107239        -0.290665         0.042306
 C        -1.495861        -0.855247         1.348876
 C        -0.347203        -1.270127         0.297114
 O         0.597230        -2.239875         0.586991
 C        -1.466921        -1.381789        -0.804858
 O        -2.264018        -2.555959        -0.934902
 H         1.119634         1.454058         1.061017
 H         2.029508        -0.041307         0.617089
 H         1.866621         1.269869        -0.610713
 H        -1.371685         1.788231        -0.475369
 H        -3.203519        -0.158493        -0.043973
 H        -1.205207        -0.228605         2.147675
 H        -1.986163        -1.739642         1.720828
 H         1.132580        -2.077831         1.417408
 H        -1.031857        -1.053648        -1.744994
 H        -1.653871        -3.303711        -1.054045
