19
Iteration:  4472charge 0 multiplicity 1
 C         1.599801         0.648565        -0.072691
 C         0.162007         0.116161        -0.363713
 C        -0.691617         0.248978        -1.362106
 C        -1.921891        -0.502656        -0.809587
 C        -1.908337        -0.226139         0.701764
 C        -0.502347        -0.903314         0.662215
 O         0.025311        -1.408488         1.821046
 C        -1.186287        -1.849075        -0.396590
 O        -2.064649        -3.022237        -0.183492
 H         1.672390         1.764169        -0.079692
 H         1.917725         0.188812         0.835382
 H         2.202714         0.351943        -0.903234
 H        -0.719943         0.953297        -2.150267
 H        -2.751975        -0.501957        -1.486363
 H        -1.904065         0.862563         1.118814
 H        -2.559135        -0.817032         1.271695
 H         0.677863        -2.140678         1.784458
 H        -0.633220        -2.282877        -1.172312
 H        -2.857225        -2.739040         0.421039
