19
Iteration:   836charge 0 multiplicity 1
 C         1.501272         0.641129        -0.024680
 C         0.102685         0.199154         0.073147
 C        -1.011596         0.914570        -0.287721
 C        -2.154724        -0.143399        -0.204797
 C        -1.773047        -0.802060         1.193317
 C        -0.492595        -1.163211         0.420152
 O         0.510479        -2.081032         0.743942
 C        -1.393119        -1.453921        -0.860971
 O        -1.889684        -2.816297        -0.553635
 H         1.918900         0.121644        -0.963816
 H         1.627008         1.713978        -0.000863
 H         2.177621         0.265885         0.756437
 H        -0.994940         1.817447        -0.880632
 H        -3.203296         0.108727        -0.503473
 H        -1.791933        -0.023129         2.049468
 H        -2.442882        -1.626897         1.398293
 H         0.246446        -2.918294         0.296462
 H        -0.997084        -1.425461        -1.899815
 H        -2.768622        -2.849686        -0.866179
