19
Iteration:  1101charge 0 multiplicity 1
 C         1.487062         0.540449        -0.088325
 C         0.036503         0.181013        -0.119468
 C        -1.166019         0.790029        -0.544492
 C        -2.080586        -0.293891        -0.207066
 C        -1.726458        -0.662971         1.287934
 C        -0.413529        -1.128631         0.568398
 O         0.536202        -1.999747         1.058687
 C        -1.256168        -1.541595        -0.695806
 O        -2.109859        -2.651009        -0.951064
 H         2.224248        -0.354513        -0.223756
 H         1.925048         1.270348        -0.699241
 H         1.799655         0.828572         0.991077
 H        -1.284888         1.676235        -1.129336
 H        -3.132899        -0.091359        -0.426486
 H        -1.650450         0.065110         2.112108
 H        -2.220707        -1.657997         1.644612
 H         0.544824        -2.092741         2.020781
 H        -0.785877        -1.245268        -1.649597
 H        -1.775740        -3.459620        -0.663528
