19
Iteration:  4779
 C         1.650910         0.547378        -0.192564
 C         0.258292        -0.092864        -0.297865
 C        -0.611203         0.127772        -1.346909
 C        -1.825377        -0.657858        -0.957867
 C        -1.980243        -0.265429         0.586081
 C        -0.626009        -0.853677         0.638055
 O        -0.099885        -1.151814         1.891178
 C        -1.136019        -1.945776        -0.418403
 O        -2.179450        -2.772587         0.004984
 H         2.337878        -0.127111         0.465987
 H         2.351984         0.910528        -0.959759
 H         1.400929         1.470699         0.427436
 H        -0.431620         0.668429        -2.219089
 H        -2.602547        -0.803557        -1.769158
 H        -2.143949         0.741156         0.939179
 H        -2.791002        -0.890797         1.027352
 H         0.875298        -0.853221         1.975646
 H        -0.306300        -2.456758        -1.061905
 H        -1.969236        -3.038029         0.864753
