19
Iteration:  1811charge 0 multiplicity 1
 C         1.513724         0.630212        -0.043267
 C         0.083764         0.271317        -0.028754
 C        -1.064944         0.796176        -0.519103
 C        -2.116505        -0.266957        -0.281925
 C        -1.717511        -0.852489         1.221269
 C        -0.359858        -1.105701         0.446326
 O         0.546712        -2.015033         1.098074
 C        -1.356397        -1.519482        -0.780927
 O        -2.124623        -2.635117        -0.684649
 H         1.799087         1.249505        -0.954543
 H         1.789648         1.164639         0.883769
 H         2.045832        -0.315926        -0.079652
 H        -1.030700         1.548504        -1.314162
 H        -3.172920        -0.149726        -0.563108
 H        -1.892423        -0.218917         2.117485
 H        -2.246658        -1.771059         1.410651
 H         0.100499        -2.932276         1.173059
 H        -0.919670        -1.280511        -1.735502
 H        -1.971039        -3.183375        -1.580550
