19
Iteration:  4975charge 0 multiplicity 1
 C         1.497837         0.508902        -0.030763
 C         0.210048        -0.031093        -0.344226
 C        -0.499775         0.110884        -1.444746
 C        -1.804316        -0.713649        -1.083358
 C        -1.984144        -0.103015         0.299543
 C        -0.610867        -0.796367         0.618062
 O        -0.129629        -1.208430         1.886440
 C        -1.138721        -1.972138        -0.334188
 O        -2.077120        -2.853502         0.240632
 H         1.511046         1.135247         0.874272
 H         2.268452        -0.193313         0.147841
 H         1.804838         1.075832        -0.895584
 H        -0.352870         0.571132        -2.449719
 H        -2.558135        -0.766838        -1.865216
 H        -2.119138         0.991351         0.385521
 H        -2.738133        -0.543107         0.980149
 H         0.430957        -0.592180         2.426613
 H        -0.303004        -2.539591        -0.696502
 H        -1.656346        -3.049745         1.052487
