19
Iteration:   658
 C         1.439564         0.535450        -0.150389
 C        -0.034552         0.262920         0.043831
 C        -1.118257         0.821926        -0.253945
 C        -2.185903        -0.175090        -0.001804
 C        -1.643575        -0.820108         1.302301
 C        -0.392687        -1.150181         0.469338
 O         0.539419        -2.237961         0.853448
 C        -1.410452        -1.387384        -0.750707
 O        -1.985965        -2.622757        -1.044662
 H         1.869263         1.254666         0.626825
 H         2.178689        -0.291551         0.042527
 H         1.706970         1.065322        -1.088192
 H        -1.204593         1.814893        -0.793544
 H        -3.236371         0.012363        -0.119093
 H        -1.552050        -0.098631         2.164438
 H        -2.243733        -1.740220         1.762606
 H         1.143620        -1.925633         1.502480
 H        -1.091302        -1.009837        -1.738439
 H        -1.243981        -3.230305        -1.090455
