19
Iteration:   979
 C         1.478759         0.631254         0.081266
 C         0.135898         0.161232        -0.128480
 C        -1.045980         0.828496        -0.452070
 C        -2.147819        -0.206012        -0.194138
 C        -1.724595        -0.744314         1.140648
 C        -0.373141        -1.137575         0.392624
 O         0.552135        -2.057610         0.937327
 C        -1.408971        -1.523847        -0.824403
 O        -2.112818        -2.720241        -0.700168
 H         1.429553         1.258062         1.013924
 H         2.247345        -0.069967         0.220831
 H         1.874860         1.453416        -0.532984
 H        -1.234400         1.866408        -0.769012
 H        -3.201068        -0.107942        -0.417496
 H        -1.710885        -0.002572         1.988460
 H        -2.262066        -1.697148         1.397973
 H         0.484321        -2.122314         1.941248
 H        -0.970633        -1.551591        -1.811136
 H        -1.617101        -3.557649        -0.898193
