19
Iteration:  2500charge 0 multiplicity 1
 C         1.473808         0.710932         0.118415
 C         0.051398         0.243398         0.107259
 C        -1.048261         0.951659        -0.102026
 C        -2.119481        -0.117636        -0.016521
 C        -1.684030        -0.931823         1.223602
 C        -0.426435        -1.219447         0.301421
 O         0.477165        -2.246217         0.579012
 C        -1.406657        -1.421317        -0.933744
 O        -1.975433        -2.745710        -0.774780
 H         1.568774         1.370220        -0.776820
 H         1.546284         1.251486         1.030005
 H         2.083264        -0.184147         0.223975
 H        -1.161974         1.971079        -0.189619
 H        -3.193520         0.069631        -0.160751
 H        -1.259023        -0.387111         2.161622
 H        -2.419802        -1.790639         1.482854
 H         1.285124        -1.901130         0.346910
 H        -0.887452        -1.169348        -1.864298
 H        -2.632975        -2.824277        -1.386453
