19
Iteration:  4794
 C         1.657339         0.519400        -0.090385
 C         0.290888         0.011161        -0.356045
 C        -0.575253         0.154727        -1.424661
 C        -1.858392        -0.596866        -0.961387
 C        -2.051851        -0.172622         0.529401
 C        -0.607079        -0.861513         0.644825
 O        -0.109111        -1.205772         1.926968
 C        -1.189938        -1.907644        -0.400490
 O        -2.133446        -2.894435         0.074822
 H         2.434365        -0.244575         0.029195
 H         1.766700         1.010294        -1.067017
 H         1.748310         1.283887         0.674999
 H        -0.221201         0.461339        -2.480222
 H        -2.731545        -0.599749        -1.590828
 H        -2.054956         0.893731         0.661948
 H        -2.751892        -0.861390         1.015501
 H         0.885133        -0.980099         1.906767
 H        -0.489687        -2.436178        -1.067579
 H        -1.677358        -3.536338         0.756444
