19
Iteration:  1591
 C         1.538729         0.527785        -0.222284
 C         0.077017         0.246852         0.001303
 C        -0.990740         0.826902        -0.515932
 C        -2.105184        -0.263277        -0.338336
 C        -1.879579        -0.731280         1.114614
 C        -0.470028        -1.093594         0.554750
 O         0.410605        -2.064499         1.128649
 C        -1.287494        -1.454487        -0.701045
 O        -1.964396        -2.723812        -0.676459
 H         2.114255        -0.405172        -0.516559
 H         1.739526         1.444662        -0.811957
 H         2.020743         0.610191         0.743594
 H        -1.047619         1.723935        -1.162598
 H        -3.118490        -0.031013        -0.666327
 H        -2.178236         0.028526         1.881499
 H        -2.314931        -1.732184         1.314832
 H         0.192269        -1.884272         2.107321
 H        -0.725163        -1.366014        -1.653439
 H        -1.377319        -3.345761        -1.057780
