19
Iteration:  2861charge 0 multiplicity 1
 C         1.486467         0.652521        -0.042618
 C         0.069368         0.268787         0.207190
 C        -1.109342         0.889187        -0.222726
 C        -2.101285        -0.379176        -0.212681
 C        -1.725349        -0.976665         1.226677
 C        -0.374022        -1.213615         0.451719
 O         0.552817        -2.110309         0.913166
 C        -1.305678        -1.459370        -0.849822
 O        -2.162577        -2.530609        -1.041496
 H         1.595491         1.104342        -1.037565
 H         1.939658         1.397284         0.645128
 H         2.190959        -0.222294        -0.087659
 H        -1.404359         1.854495        -0.375492
 H        -3.161918        -0.313894        -0.511260
 H        -1.564264        -0.195728         2.025001
 H        -2.253951        -1.817728         1.574751
 H         1.475844        -1.738589         1.164835
 H        -0.726438        -1.247325        -1.821921
 H        -2.581981        -2.813778        -0.102669
