19
Iteration:  1358charge 0 multiplicity 1
 C         1.595433         0.525585        -0.126781
 C         0.047482         0.231645        -0.014370
 C        -1.033802         0.743509        -0.584283
 C        -2.121483        -0.265371        -0.345990
 C        -1.836344        -0.670515         1.149987
 C        -0.492676        -1.089672         0.564565
 O         0.403284        -1.887709         1.208471
 C        -1.330976        -1.543075        -0.811487
 O        -1.847604        -2.808266        -0.731660
 H         1.755809         1.546489         0.005648
 H         2.105332         0.025726         0.724424
 H         2.056696         0.264936        -1.055248
 H        -1.114704         1.754425        -1.095321
 H        -3.142158         0.108789        -0.569072
 H        -1.694302         0.089315         1.951544
 H        -2.403112        -1.512090         1.523278
 H         0.097494        -2.784669         0.923860
 H        -0.885080        -1.541089        -1.829157
 H        -2.552177        -2.863713        -0.060176
