19
Iteration:  3371
 C         1.532055         0.647858        -0.117923
 C         0.074870         0.177341         0.024388
 C        -1.031307         0.705282        -0.576270
 C        -2.182314        -0.190643        -0.336055
 C        -1.811675        -0.541264         1.128180
 C        -0.474155        -1.137808         0.543139
 O         0.468222        -2.021068         1.205575
 C        -1.328149        -1.527379        -0.763972
 O        -1.885830        -2.879689        -0.786767
 H         1.602700         1.564349        -0.778182
 H         1.868008         0.929198         0.879713
 H         2.172160        -0.131403        -0.542927
 H        -0.975530         1.652551        -1.231194
 H        -3.208469         0.083829        -0.627724
 H        -1.547422         0.328376         1.814360
 H        -2.361205        -1.366125         1.594589
 H         0.131435        -2.876432         1.266094
 H        -0.841369        -1.369913        -1.717208
 H        -2.464855        -2.874210        -0.049354
