19
Iteration:  3674
 C         1.580025         0.639064        -0.115235
 C         0.145904         0.171103        -0.113534
 C        -0.943587         0.729392        -0.828186
 C        -2.074105        -0.310668        -0.551934
 C        -1.871534        -0.518230         0.955426
 C        -0.496479        -1.105025         0.550139
 O         0.341411        -1.854637         1.436664
 C        -1.297562        -1.689405        -0.750597
 O        -1.973432        -2.831787        -0.361074
 H         2.216422        -0.260499         0.128965
 H         2.037321         1.107907        -1.086613
 H         1.703514         1.347186         0.720619
 H        -0.964596         1.591264        -1.506889
 H        -2.985355        -0.112618        -1.055554
 H        -1.836780         0.390441         1.617315
 H        -2.543094        -1.299423         1.288543
 H        -0.250997        -2.385015         1.904735
 H        -0.700160        -1.807678        -1.729676
 H        -2.035321        -3.445889        -1.097095
