19
Iteration:  2687
 C         1.459172         0.827046         0.240709
 C         0.138639         0.255613        -0.035432
 C        -1.056741         0.808904        -0.314222
 C        -2.172644        -0.243053         0.036229
 C        -1.560036        -0.949949         1.318093
 C        -0.377057        -1.204792         0.355263
 O         0.542256        -2.324230         0.650390
 C        -1.529935        -1.366190        -0.859595
 O        -2.172501        -2.622498        -0.921711
 H         1.343924         1.561783         1.047123
 H         2.299771         0.181138         0.568721
 H         2.019157         1.386189        -0.598096
 H        -1.258288         1.891277        -0.659884
 H        -3.167910         0.044178        -0.249799
 H        -1.379698        -0.300958         2.283242
 H        -2.004026        -1.912002         1.620374
 H         1.291367        -1.964008         1.055344
 H        -1.117553        -1.045582        -1.860885
 H        -1.730653        -3.102888        -1.647538
