19
Iteration:  2443charge 0 multiplicity 1
 C         1.393512         0.637311         0.201436
 C         0.066501         0.189969         0.010347
 C        -1.059300         0.906213        -0.234466
 C        -2.113864        -0.186840        -0.033732
 C        -1.563557        -0.911377         1.273348
 C        -0.424414        -1.160142         0.301020
 O         0.660921        -2.175913         0.583878
 C        -1.498391        -1.418010        -0.788596
 O        -2.121172        -2.677148        -0.854043
 H         1.557701         1.628658        -0.306220
 H         1.752628         0.683498         1.237575
 H         2.103004         0.055434        -0.358871
 H        -1.227596         2.033506        -0.392376
 H        -3.193665        -0.030571        -0.287701
 H        -1.359981        -0.475447         2.288783
 H        -2.209935        -1.858015         1.461668
 H         0.904572        -2.145120         1.579046
 H        -0.966574        -1.123780        -1.723890
 H        -2.559979        -2.676316        -1.818472
