19
Iteration:  1836charge 0 multiplicity 1
 C         1.546353         0.631739        -0.211809
 C         0.079042         0.224401         0.101187
 C        -0.981935         0.814696        -0.352300
 C        -2.071063        -0.258109        -0.317636
 C        -1.963767        -0.775830         1.204501
 C        -0.457821        -1.138987         0.531375
 O         0.566925        -1.987925         1.031519
 C        -1.234058        -1.555102        -0.761060
 O        -2.056999        -2.724718        -0.714232
 H         1.502027         0.891211        -1.341189
 H         1.838629         1.526072         0.279950
 H         2.240768        -0.228056        -0.069655
 H        -1.058411         1.852996        -0.662690
 H        -3.100143        -0.176392        -0.619943
 H        -1.983730        -0.001519         1.981801
 H        -2.887789        -1.412725         1.452436
 H         0.228770        -2.910160         0.943762
 H        -0.515627        -1.394964        -1.592616
 H        -2.376333        -2.921307        -1.640873
