19
Iteration:  1381
 C         1.525830         0.558284        -0.182458
 C        -0.000807         0.236210         0.068636
 C        -0.997433         0.821488        -0.518802
 C        -2.050433        -0.185404        -0.433814
 C        -1.999622        -0.654945         1.111240
 C        -0.478692        -1.180911         0.589325
 O         0.532248        -1.932629         1.211521
 C        -1.236462        -1.534040        -0.689686
 O        -1.996355        -2.801968        -0.741800
 H         1.852489         1.544257        -0.110021
 H         2.195191        -0.120647         0.466430
 H         1.685681         0.303112        -1.188121
 H        -0.913553         1.565971        -1.352171
 H        -3.007874        -0.081345        -1.001851
 H        -2.062256         0.153970         1.834023
 H        -2.556390        -1.558250         1.441091
 H         0.605516        -2.684259         0.640209
 H        -0.588935        -1.667926        -1.614724
 H        -1.894411        -3.285825         0.173323
