19
Iteration:   838
 C         1.503538         0.641650        -0.031678
 C         0.092320         0.192397         0.071453
 C        -0.997345         0.899110        -0.295193
 C        -2.157834        -0.140255        -0.216143
 C        -1.786930        -0.790226         1.207195
 C        -0.460747        -1.154172         0.433583
 O         0.487239        -2.079812         0.735557
 C        -1.401381        -1.447930        -0.856113
 O        -1.859923        -2.810874        -0.553464
 H         1.838175         0.104729        -0.997118
 H         1.516860         1.659241         0.061353
 H         2.186239         0.189938         0.743541
 H        -1.036993         1.813760        -0.854353
 H        -3.187632         0.114756        -0.484597
 H        -1.800285        -0.091097         2.039647
 H        -2.413017        -1.619249         1.431555
 H         0.223816        -2.964045         0.297343
 H        -0.991424        -1.368738        -1.894944
 H        -2.819915        -2.859560        -0.881654
