19
Iteration:  1325
 C         1.476383         0.610539        -0.014462
 C         0.086181         0.177125        -0.105931
 C        -1.054458         0.797494        -0.634327
 C        -2.078898        -0.237632        -0.295740
 C        -1.707457        -0.597133         1.161868
 C        -0.415975        -1.050125         0.490928
 O         0.396599        -2.028270         1.113390
 C        -1.397940        -1.581838        -0.800323
 O        -1.869748        -2.852634        -0.628173
 H         1.648849         1.601873        -0.238393
 H         1.764267         0.415929         1.055727
 H         2.230587         0.001489        -0.455425
 H        -1.182262         1.849051        -1.044309
 H        -3.169275        -0.035253        -0.394245
 H        -1.604682         0.320083         1.772204
 H        -2.295818        -1.443057         1.438423
 H        -0.223498        -2.671596         1.622651
 H        -0.878802        -1.362353        -1.773397
 H        -2.563651        -2.872870        -1.243856
