19
Iteration:   255charge 0 multiplicity 1
 C         1.498662         0.731350         0.068573
 C         0.037996         0.223739         0.064054
 C        -1.058174         0.831917        -0.099921
 C        -2.166442        -0.238079        -0.076722
 C        -1.724165        -1.036958         1.226073
 C        -0.325000        -1.239743         0.302471
 O         0.741135        -2.072484         0.627707
 C        -1.369226        -1.407006        -0.838946
 O        -2.258836        -2.550000        -0.744772
 H         1.521181         1.893657         0.106216
 H         2.096658         0.226005         0.842452
 H         2.030095         0.444512        -0.816061
 H        -1.257983         1.904989        -0.086912
 H        -3.230043        -0.031326        -0.364939
 H        -1.550671        -0.501716         2.125499
 H        -2.221517        -1.965860         1.439672
 H         0.451447        -3.042205         0.486182
 H        -0.907587        -1.285644        -1.810850
 H        -2.329647        -2.923821        -1.673647
