19
Iteration:  2360charge 0 multiplicity 1
 C         1.538089         0.637107        -0.093681
 C         0.086077         0.203898         0.110751
 C        -1.127626         0.839763        -0.154101
 C        -2.225684        -0.238944         0.043739
 C        -1.676043        -0.816116         1.388418
 C        -0.431901        -1.132642         0.394788
 O         0.464838        -2.152315         0.733025
 C        -1.383560        -1.334897        -0.769378
 O        -1.956046        -2.743103        -0.983544
 H         1.796597         1.427632         0.674000
 H         2.152649        -0.210200         0.182987
 H         1.868866         0.896627        -1.133442
 H        -1.190280         1.907484        -0.471346
 H        -3.253951        -0.031863        -0.352428
 H        -1.533290         0.060341         2.002464
 H        -2.088126        -1.686094         1.853664
 H         0.623266        -2.781376        -0.060662
 H        -0.994109        -0.974109        -1.757700
 H        -1.838220        -3.048289        -1.847962
