19
Iteration:  2685
 C         1.477503         0.830598         0.236482
 C         0.116964         0.259341        -0.029544
 C        -1.040774         0.825334        -0.315460
 C        -2.174578        -0.237620         0.030285
 C        -1.560394        -0.955161         1.328758
 C        -0.386089        -1.192560         0.359043
 O         0.542662        -2.331887         0.638446
 C        -1.541604        -1.390385        -0.847131
 O        -2.159505        -2.631289        -0.927564
 H         1.356824         1.627180         1.049292
 H         2.336103         0.235493         0.584452
 H         1.987039         1.346054        -0.626488
 H        -1.232954         1.931560        -0.603554
 H        -3.159072         0.063532        -0.277327
 H        -1.375030        -0.376763         2.272227
 H        -2.095053        -1.848754         1.595033
 H         1.282246        -1.960049         1.093429
 H        -1.105324        -1.106531        -1.879426
 H        -1.787848        -3.054105        -1.621378
