19
Iteration:  2723charge 0 multiplicity 1
 C         1.460278         0.727209         0.234046
 C         0.021827         0.251498         0.029649
 C        -1.076722         0.908623        -0.262928
 C        -2.106435        -0.232109        -0.140558
 C        -1.592533        -0.982125         1.302295
 C        -0.394751        -1.270739         0.334697
 O         0.646616        -2.172192         0.727451
 C        -1.350042        -1.411951        -0.872711
 O        -2.309905        -2.580522        -0.921495
 H         1.620489         0.816995         1.294430
 H         2.124757        -0.082526        -0.092466
 H         1.605316         1.679215        -0.271378
 H        -1.335051         1.897320        -0.225363
 H        -3.194268        -0.141461        -0.390388
 H        -1.382603        -0.285451         2.138183
 H        -1.934433        -2.017529         1.680116
 H         1.350743        -1.973018         0.143764
 H        -0.944784        -1.199881        -1.844195
 H        -1.807191        -3.399611        -0.711847
