19
Iteration:   409charge 0 multiplicity 1
 C         1.497226         0.615000        -0.132211
 C         0.093758         0.270504         0.192821
 C        -1.172887         0.817583        -0.192661
 C        -2.179768        -0.284987         0.072322
 C        -1.594430        -0.909157         1.336311
 C        -0.411622        -1.154763         0.386232
 O         0.555141        -2.170258         0.716403
 C        -1.358001        -1.350229        -0.816416
 O        -2.077197        -2.569286        -1.026561
 H         2.048563        -0.416856         0.125755
 H         1.563423         0.912937        -1.156218
 H         1.766370         1.454516         0.497180
 H        -1.254387         1.748900        -0.839864
 H        -3.269942        -0.170401        -0.026060
 H        -1.381155        -0.194942         2.060626
 H        -2.280319        -1.691276         1.558633
 H         0.202137        -2.501268         1.511968
 H        -0.975918        -0.913355        -1.754849
 H        -1.516826        -3.304667        -1.057484
