19
Iteration:  4334charge 0 multiplicity 1
 C         1.688329         0.505292        -0.172894
 C         0.216337         0.153367        -0.232689
 C        -0.727685         0.358256        -1.225497
 C        -1.972538        -0.432282        -0.832163
 C        -2.045345        -0.368644         0.849093
 C        -0.573468        -0.897346         0.605416
 O        -0.037732        -1.453786         1.774963
 C        -1.230073        -1.779301        -0.651953
 O        -1.948796        -2.956902        -0.136167
 H         2.039610         0.108465         0.859955
 H         2.328687         0.140486        -1.027965
 H         1.966079         1.613893        -0.066847
 H        -0.773326         1.213269        -1.833943
 H        -2.723547        -0.253106        -1.611202
 H        -2.231752         0.622766         1.300445
 H        -2.596319        -1.206606         1.382652
 H         0.802042        -1.932404         1.533874
 H        -0.481427        -2.106582        -1.491157
 H        -1.790348        -2.960340         0.812072
