19
Iteration:  1615charge 0 multiplicity 1
 C         1.536626         0.499917        -0.255403
 C         0.092882         0.228370         0.101366
 C        -0.992389         0.949696        -0.335401
 C        -2.108948        -0.245755        -0.357474
 C        -1.869713        -0.788388         1.038258
 C        -0.494489        -1.130674         0.491943
 O         0.443302        -1.934222         1.232705
 C        -1.263631        -1.644700        -0.914684
 O        -2.049635        -2.718594        -0.701427
 H         2.195006        -0.489534        -0.114974
 H         1.529735         0.962337        -1.165750
 H         2.141792         1.095047         0.440446
 H        -1.048059         1.930107        -0.663988
 H        -3.095602         0.154120        -0.641888
 H        -1.635697        -0.098426         1.993197
 H        -2.511746        -1.610272         1.357124
 H         0.545071        -1.309186         2.032207
 H        -0.500777        -1.815892        -1.750324
 H        -1.690558        -3.656926        -1.079696
