19
Iteration:  3747charge 0 multiplicity 1
 C         1.520845         0.584405         0.042588
 C         0.110722         0.190721        -0.186217
 C        -0.845423         0.634415        -0.954329
 C        -1.997807        -0.316806        -0.601273
 C        -1.910477        -0.425592         0.947241
 C        -0.493032        -1.047207         0.536376
 O         0.386287        -1.747555         1.343975
 C        -1.255411        -1.737140        -0.634110
 O        -2.018500        -2.940194        -0.334625
 H         1.942133         1.284775        -0.676610
 H         1.575726         1.126469         0.971647
 H         2.264207        -0.245387         0.181966
 H        -1.053274         1.516414        -1.513661
 H        -3.029064        -0.200786        -1.051197
 H        -2.015605         0.573389         1.539475
 H        -2.555485        -1.233232         1.262498
 H         0.136929        -2.658962         1.197724
 H        -0.646346        -1.932153        -1.488335
 H        -3.009006        -2.685418        -0.237715
