19
Iteration:  3934
 C         1.662103         0.662611        -0.094498
 C         0.177647         0.137401        -0.267276
 C        -0.883103         0.555325        -1.052301
 C        -2.013978        -0.407592        -0.587536
 C        -1.863892        -0.284594         0.912954
 C        -0.504066        -1.023045         0.560687
 O         0.065209        -1.775927         1.634414
 C        -1.303245        -1.742244        -0.645896
 O        -1.989903        -2.929325        -0.342205
 H         2.252833         0.951187        -0.962515
 H         1.418392         1.482456         0.557850
 H         2.194366        -0.155751         0.451237
 H        -0.870305         1.027962        -2.146479
 H        -2.883647        -0.304185        -1.155711
 H        -1.810359         0.836781         1.044021
 H        -2.518046        -0.905537         1.522673
 H         0.866605        -2.113016         1.381658
 H        -0.654285        -1.832466        -1.572265
 H        -1.435348        -3.344011         0.437915
