19
Iteration:  2402charge 0 multiplicity 1
 C         1.529577         0.791474         0.012309
 C         0.135962         0.224452         0.114984
 C        -1.091764         0.822955        -0.189743
 C        -2.147852        -0.252124        -0.093796
 C        -1.663513        -1.034234         1.227744
 C        -0.333563        -1.212852         0.381364
 O         0.535979        -2.152732         0.723560
 C        -1.353934        -1.370358        -0.864079
 O        -2.152405        -2.569264        -0.754700
 H         1.430124         1.909041         0.263743
 H         2.179264         0.259493         0.659028
 H         1.869316         0.735525        -1.041137
 H        -1.148900         1.889023        -0.515943
 H        -3.232383        -0.096800        -0.359709
 H        -1.503371        -0.679526         2.287250
 H        -2.229366        -2.012487         1.351906
 H         0.095450        -2.923394         0.453263
 H        -1.237142        -1.120171        -1.920560
 H        -2.213914        -2.902899        -1.617344
