19
Iteration:  3000charge 0 multiplicity 1
 C         1.497880         0.712305         0.082655
 C         0.074518         0.279587         0.151580
 C        -1.081304         0.831723        -0.391567
 C        -2.119740        -0.258697        -0.194789
 C        -1.729580        -0.776585         1.146650
 C        -0.373271        -1.229130         0.397015
 O         0.571787        -2.163410         0.834988
 C        -1.344057        -1.471160        -0.883840
 O        -2.144486        -2.690414        -0.758458
 H         2.171448        -0.040976         0.671537
 H         1.858883         0.715107        -1.003819
 H         1.601583         1.768313         0.428618
 H        -1.364743         1.842173        -0.628775
 H        -3.166084        -0.044295        -0.469205
 H        -1.683111         0.048111         1.938238
 H        -2.391029        -1.590558         1.462148
 H         0.753168        -2.187215         1.810651
 H        -0.943228        -1.380282        -1.865847
 H        -1.728902        -3.394809        -1.142778
