19
Iteration:  3804charge 0 multiplicity 1
 C         1.593896         0.707295        -0.112341
 C         0.207029         0.094623        -0.187924
 C        -0.777099         0.632059        -0.988842
 C        -2.067602        -0.305798        -0.673457
 C        -1.859470        -0.350404         1.021836
 C        -0.576152        -1.039537         0.567705
 O         0.149342        -1.822046         1.564776
 C        -1.298921        -1.711139        -0.618722
 O        -1.958549        -2.994188        -0.453153
 H         1.592091         1.514934         0.632332
 H         2.234936        -0.126603         0.221517
 H         1.811628         0.993037        -1.111724
 H        -0.987224         1.607220        -1.476130
 H        -2.980365        -0.157822        -1.180637
 H        -1.972803         0.620616         1.620782
 H        -2.439611        -1.082522         1.598255
 H         0.718922        -2.461463         0.951814
 H        -0.716889        -1.854094        -1.472427
 H        -1.940421        -3.188226         0.470942
