19
Iteration:    84charge 0 multiplicity 1
 C         1.524893         0.701772         0.259118
 C         0.086374         0.263847        -0.024633
 C        -1.152550         0.821505        -0.176855
 C        -2.185238        -0.279738         0.120901
 C        -1.473609        -0.901045         1.376604
 C        -0.318605        -1.203006         0.325785
 O         0.708635        -2.142333         0.520375
 C        -1.465022        -1.418478        -0.873133
 O        -2.341702        -2.577976        -1.050107
 H         2.312625        -0.098083         0.072166
 H         1.847236         1.765984        -0.054596
 H         1.575485         0.812356         1.443902
 H        -1.410601         1.772834        -0.670542
 H        -3.277880        -0.200190         0.043343
 H        -1.345099        -0.137144         2.183286
 H        -1.951832        -1.898101         1.726226
 H         0.238294        -2.911881         0.955873
 H        -1.133432        -0.892978        -1.814780
 H        -1.882430        -3.367004        -1.402934
