19
Iteration:  4968
 C         1.538126         0.510950        -0.029737
 C         0.226811        -0.035179        -0.376194
 C        -0.534991         0.093613        -1.442814
 C        -1.796667        -0.642795        -1.075598
 C        -1.993048        -0.094462         0.339836
 C        -0.613997        -0.823667         0.566133
 O        -0.129850        -1.189269         1.927525
 C        -1.103821        -1.960584        -0.340819
 O        -2.092211        -2.922601         0.235818
 H         1.279090         1.328816         0.721009
 H         2.335722        -0.206847         0.334942
 H         1.898929         1.006923        -0.975077
 H        -0.385664         0.651873        -2.302991
 H        -2.533614        -0.813039        -1.830637
 H        -1.920848         0.976948         0.373244
 H        -2.971549        -0.498349         0.920864
 H         0.353408        -0.507717         2.348239
 H        -0.301622        -2.610289        -0.862486
 H        -1.846955        -2.975362         1.127921
