19
Iteration:  3207
 C         1.619508         0.697198        -0.021934
 C         0.138565         0.221394         0.013287
 C        -1.053883         0.715092        -0.430413
 C        -2.131230        -0.219289        -0.248750
 C        -1.934802        -0.780805         1.118949
 C        -0.444594        -1.163104         0.453820
 O         0.617733        -1.954898         0.964476
 C        -1.348696        -1.541352        -0.824948
 O        -2.105141        -2.741913        -0.627034
 H         1.904523         1.267361         0.948192
 H         2.265510        -0.194245        -0.113792
 H         1.936071         1.425536        -0.782933
 H        -1.254263         1.667644        -0.809867
 H        -3.149555        -0.077980        -0.687415
 H        -1.854109         0.023771         1.938165
 H        -2.443056        -1.675379         1.394908
 H         0.051979        -2.677354         1.484889
 H        -0.745787        -1.344249        -1.843661
 H        -2.008934        -3.278311        -1.517721
