19
Iteration:   158
 C         1.415418         0.652202        -0.190217
 C         0.108103         0.308813         0.304761
 C        -1.100444         0.931823        -0.029256
 C        -2.128770        -0.222961         0.019481
 C        -1.712315        -1.046832         1.288920
 C        -0.434411        -1.187057         0.443450
 O         0.548247        -2.216752         0.634357
 C        -1.338120        -1.316983        -0.903455
 O        -1.934404        -2.624687        -0.940135
 H         1.365314         0.834042        -1.344467
 H         1.816567         1.490263         0.365648
 H         2.022579        -0.219431        -0.023747
 H        -1.232181         2.019046        -0.230534
 H        -3.204501         0.091901        -0.090829
 H        -1.586281        -0.441522         2.167510
 H        -2.264906        -1.976170         1.508246
 H         0.024609        -2.963213         1.035150
 H        -0.859894        -1.003083        -1.833549
 H        -2.564202        -2.661831        -1.743367
