19
Iteration:  1139charge 0 multiplicity 1
 C         1.565677         0.537811        -0.247815
 C         0.130909         0.243063         0.082764
 C        -1.030204         0.818561        -0.430746
 C        -2.103509        -0.202931        -0.252016
 C        -1.801288        -0.768942         1.231648
 C        -0.488455        -1.109179         0.558935
 O         0.468371        -1.947780         1.087929
 C        -1.403791        -1.508520        -0.869192
 O        -1.950569        -2.794148        -0.717520
 H         1.716626        -0.054038        -1.106821
 H         1.600139         1.685959        -0.355023
 H         2.070125         0.138988         0.623423
 H        -1.065548         1.807798        -0.960275
 H        -3.066352         0.119489        -0.673835
 H        -1.810555        -0.027743         2.036738
 H        -2.461790        -1.567781         1.320201
 H        -0.088018        -2.544282         1.709715
 H        -0.991688        -1.279243        -1.881781
 H        -1.574844        -3.388180        -1.386542
