19
Iteration:  3773
 C         1.545587         0.689550        -0.044454
 C         0.162293         0.165658        -0.161398
 C        -0.858795         0.577433        -0.924770
 C        -2.065730        -0.383809        -0.636778
 C        -1.882720        -0.464487         0.961192
 C        -0.466595        -1.090014         0.489570
 O         0.223619        -1.818560         1.494053
 C        -1.223909        -1.711604        -0.721686
 O        -1.987726        -2.801363        -0.339830
 H         1.714621         1.817221        -0.107112
 H         1.897849         0.463775         1.055205
 H         2.232428         0.209017        -0.717766
 H        -0.953695         1.269714        -1.805113
 H        -3.000478        -0.278125        -1.099292
 H        -1.889133         0.510837         1.459668
 H        -2.406127        -1.309834         1.497128
 H         0.410861        -2.636683         1.106716
 H        -0.650969        -1.947229        -1.656965
 H        -2.613332        -2.437769         0.401080
