19
Iteration:  3753
 C         1.574400         0.605918         0.051851
 C         0.137831         0.166543        -0.159936
 C        -0.884978         0.612570        -1.006044
 C        -2.004386        -0.340148        -0.633864
 C        -1.865517        -0.473496         0.968441
 C        -0.488242        -1.010810         0.571041
 O         0.343033        -1.753618         1.357930
 C        -1.256784        -1.717210        -0.633736
 O        -2.020613        -2.905052        -0.329558
 H         1.731291         1.393120        -0.722009
 H         1.574293         1.049152         1.092010
 H         2.222799        -0.270349        -0.075116
 H        -1.121364         1.642251        -1.393474
 H        -2.950383        -0.228008        -1.158273
 H        -1.999086         0.433741         1.437666
 H        -2.661268        -1.199225         1.309798
 H         0.214212        -2.653575         1.106898
 H        -0.744415        -1.945407        -1.648371
 H        -2.923632        -2.668333        -0.154367
