19
Iteration:  2333charge 0 multiplicity 1
 C         1.548603         0.535755        -0.092288
 C        -0.037514         0.277376         0.041531
 C        -1.186628         0.920918        -0.206320
 C        -2.162703        -0.154374         0.087058
 C        -1.628400        -0.951305         1.306069
 C        -0.427736        -1.161462         0.396691
 O         0.542590        -2.113432         0.832580
 C        -1.410778        -1.321089        -0.822213
 O        -1.884979        -2.689529        -0.966265
 H         1.911186         1.102184         0.783478
 H         1.950612        -0.520199        -0.022092
 H         1.884601         0.985275        -1.026864
 H        -1.355078         1.871587        -0.649688
 H        -3.215946        -0.010828        -0.073318
 H        -1.425547        -0.379391         2.254273
 H        -2.327048        -1.860370         1.471049
 H         0.170231        -3.023095         0.586109
 H        -1.164606        -0.966574        -1.829413
 H        -2.240229        -2.958865        -1.756007
