19
Iteration:  4923
 C         1.593619         0.488153        -0.139314
 C         0.208237         0.047558        -0.328104
 C        -0.574667        -0.005063        -1.470443
 C        -1.821999        -0.640160        -0.979618
 C        -2.010261        -0.071215         0.463679
 C        -0.605840        -0.777727         0.718374
 O        -0.096169        -1.136185         1.895578
 C        -1.142473        -1.954489        -0.362626
 O        -1.971633        -2.987642         0.124272
 H         1.761512         1.608735        -0.327133
 H         1.817462         0.354823         0.944343
 H         2.434491        -0.106689        -0.607209
 H        -0.295260         0.229146        -2.551709
 H        -2.633666        -0.661638        -1.670808
 H        -2.175194         0.943011         0.712404
 H        -2.918183        -0.645038         1.005127
 H        -0.386690        -0.554602         2.571491
 H        -0.434482        -2.499152        -1.061380
 H        -2.808493        -2.592732         0.005821
