19
Iteration:  1516
 C         1.523550         0.673447         0.156419
 C         0.189994         0.219949        -0.151640
 C        -0.961250         0.793314        -0.576021
 C        -2.083081        -0.263492        -0.382255
 C        -1.780869        -0.769617         1.071638
 C        -0.404496        -1.124672         0.371024
 O         0.449968        -1.955585         0.992852
 C        -1.394024        -1.650175        -0.820010
 O        -2.140557        -2.717324        -0.490483
 H         1.974129         1.025958        -0.844115
 H         1.522210         1.536274         0.779114
 H         2.079076        -0.097465         0.711698
 H        -0.966735         1.802011        -1.128054
 H        -3.119399        -0.108381        -0.692513
 H        -1.549679         0.005934         1.874677
 H        -2.447972        -1.634434         1.289716
 H         0.204662        -2.103919         1.875766
 H        -1.068677        -1.657509        -1.931723
 H        -1.618988        -3.410747         0.115726
