19
Iteration:  4627
 C         1.549558         0.485167        -0.185150
 C         0.206087        -0.016295        -0.291093
 C        -0.623858         0.113524        -1.351097
 C        -1.855176        -0.546926        -0.926382
 C        -1.965205        -0.199792         0.724289
 C        -0.652849        -0.854426         0.699226
 O        -0.004231        -1.177992         1.966191
 C        -1.159942        -1.892547        -0.403493
 O        -2.103352        -2.873246        -0.186016
 H         2.112260         0.434554        -1.164051
 H         1.681015         1.441322         0.278684
 H         2.116537        -0.201308         0.447204
 H        -0.533859         0.731138        -2.310918
 H        -2.765170        -0.512159        -1.627850
 H        -2.065105         0.852887         0.875111
 H        -2.690826        -0.964523         1.158076
 H         1.002490        -0.938055         1.898706
 H        -0.442307        -2.196008        -1.154732
 H        -1.658485        -3.743830         0.083500
