19
Iteration:  2320
 C         1.437658         0.519944        -0.107841
 C         0.085304         0.245942         0.027589
 C        -1.117382         0.907701        -0.162014
 C        -2.271059        -0.133990         0.075556
 C        -1.755792        -0.982368         1.278002
 C        -0.438181        -1.218336         0.390255
 O         0.625182        -2.107507         0.776312
 C        -1.359943        -1.306470        -0.885920
 O        -1.880752        -2.648628        -0.863752
 H         1.756091         0.986658         0.777842
 H         2.108505        -0.407284        -0.147548
 H         1.772863         1.205029        -0.893521
 H        -1.263755         1.749650        -0.767218
 H        -3.283634         0.094009        -0.148096
 H        -1.616022        -0.440178         2.229952
 H        -2.223265        -1.972555         1.441926
 H         0.219478        -2.873162         1.127231
 H        -0.786714        -0.974760        -1.783159
 H        -2.512221        -2.519735        -1.703124
