19
Iteration:  1526
 C         1.549994         0.691723         0.119452
 C         0.136980         0.192873        -0.170594
 C        -0.972643         0.782966        -0.575684
 C        -2.069973        -0.214440        -0.324793
 C        -1.779399        -0.660848         1.112516
 C        -0.474808        -1.180345         0.287938
 O         0.472613        -1.979394         1.046886
 C        -1.398517        -1.590010        -0.858222
 O        -2.103660        -2.831122        -0.540378
 H         2.313853         0.831009        -0.695471
 H         1.465965         1.574995         0.725981
 H         2.018854        -0.102552         0.662253
 H        -1.247334         1.863764        -0.822225
 H        -3.048250         0.165523        -0.606658
 H        -1.612735         0.100434         1.912055
 H        -2.507930        -1.416295         1.523333
 H         0.052848        -2.155121         1.906047
 H        -0.777724        -1.722845        -1.772110
 H        -1.424004        -3.302861         0.087278
