19
Iteration:  2276charge 0 multiplicity 1
 C         1.536224         0.731169         0.008170
 C         0.040096         0.288725         0.142833
 C        -1.165676         0.909163        -0.148023
 C        -2.144008        -0.189378        -0.096608
 C        -1.695850        -0.908061         1.174841
 C        -0.339549        -1.195939         0.412383
 O         0.623478        -2.196063         0.699506
 C        -1.355389        -1.518823        -0.878470
 O        -2.086732        -2.683836        -0.809986
 H         2.128680         0.408464         0.819375
 H         1.921876         0.291462        -0.990077
 H         1.522103         1.845791        -0.029431
 H        -1.045606         1.794529        -0.768982
 H        -3.195334         0.040585        -0.101499
 H        -1.546905        -0.234702         2.052684
 H        -2.210513        -1.811176         1.527303
 H         0.144428        -2.628594         1.369747
 H        -0.916231        -1.385376        -1.899445
 H        -2.852665        -2.514889        -1.473678
