19
Iteration:  1000
 C         1.476828         0.721695         0.164568
 C         0.120871         0.216540        -0.065597
 C        -0.987953         0.811382        -0.614411
 C        -2.114659        -0.210409        -0.211590
 C        -1.689879        -0.691083         1.266695
 C        -0.515710        -1.136254         0.405469
 O         0.403519        -2.190415         0.782760
 C        -1.437164        -1.475556        -0.752436
 O        -1.976528        -2.797403        -0.638894
 H         1.787128         0.887924         1.210628
 H         2.234865         0.097810        -0.379123
 H         1.733789         1.698379        -0.311208
 H        -1.147332         1.806429        -1.085578
 H        -3.104244         0.000384        -0.620702
 H        -1.418071         0.137662         2.005969
 H        -2.353191        -1.527373         1.609569
 H         0.525585        -2.089160         1.736000
 H        -0.996207        -1.416271        -1.749167
 H        -1.290125        -3.500150        -0.914052
