19
Iteration:   117
 C         1.475040         0.678610         0.034037
 C         0.083997         0.114687         0.072542
 C        -1.096204         0.839667        -0.109711
 C        -2.119864        -0.256935         0.054497
 C        -1.612924        -1.069201         1.299369
 C        -0.353995        -1.263558         0.344517
 O         0.752115        -2.006180         0.742304
 C        -1.440978        -1.321055        -0.922473
 O        -2.296435        -2.499298        -0.975737
 H         1.897809         0.409684        -0.968881
 H         1.365308         1.791642         0.211951
 H         1.903168         0.042836         0.881971
 H        -1.213278         1.911482        -0.233650
 H        -3.166142        -0.019753        -0.169851
 H        -1.556480        -0.507532         2.259994
 H        -2.163081        -2.060428         1.491722
 H         0.719482        -2.932309         0.699751
 H        -1.154186        -0.952997        -1.952692
 H        -2.101692        -3.117274        -1.641241
