19
Iteration:  4683
 C         1.593685         0.446928        -0.042436
 C         0.191029         0.107129        -0.410697
 C        -0.670168         0.325301        -1.387730
 C        -1.845667        -0.608165        -0.965826
 C        -1.956103        -0.153799         0.540132
 C        -0.545140        -0.894432         0.555811
 O        -0.168514        -1.298679         1.825097
 C        -1.104737        -1.932806        -0.410854
 O        -2.024526        -2.843588         0.210675
 H         1.693811         1.534750         0.098978
 H         1.979202         0.090468         0.895224
 H         2.222783         0.099616        -0.857298
 H        -0.527744         0.826791        -2.346920
 H        -2.829593        -0.758723        -1.500044
 H        -2.044144         0.893667         0.754343
 H        -2.761422        -0.804170         1.118708
 H         0.522160        -1.916392         1.799649
 H        -0.460417        -2.342223        -1.168854
 H        -1.639224        -3.675329         0.255007
