19
Iteration:  2537charge 0 multiplicity 1
 C         1.496649         0.817372        -0.019781
 C         0.095695         0.281130         0.144152
 C        -1.055220         0.827456        -0.177105
 C        -2.133018        -0.275201         0.017805
 C        -1.658218        -1.061419         1.250998
 C        -0.349202        -1.216398         0.401372
 O         0.460389        -2.252979         0.801552
 C        -1.403558        -1.276211        -0.903281
 O        -2.095929        -2.600556        -0.914214
 H         1.691734         1.308884        -0.922843
 H         1.914430         1.497523         0.746892
 H         2.275089         0.037529        -0.084968
 H        -1.385494         1.930590        -0.285221
 H        -3.174719        -0.089842        -0.225531
 H        -1.596179        -0.632880         2.241918
 H        -2.073491        -2.032905         1.270937
 H         1.063480        -2.474392         0.104743
 H        -0.866510        -1.060122        -1.809274
 H        -2.561284        -2.856913        -1.676108
