19
Iteration:   678
 C         1.589092         0.581270        -0.177565
 C         0.021669         0.261708         0.102800
 C        -1.061212         0.869451        -0.215326
 C        -2.178518        -0.233761        -0.027402
 C        -1.786628        -0.772066         1.390905
 C        -0.486337        -1.133285         0.546395
 O         0.386602        -2.161120         0.632953
 C        -1.341335        -1.385976        -0.770964
 O        -1.909663        -2.750083        -0.953721
 H         2.133749         0.980686         0.654423
 H         2.083018        -0.433280        -0.389364
 H         1.501896         1.185524        -1.090963
 H        -1.308653         1.869813        -0.639375
 H        -3.216271         0.031017        -0.186810
 H        -1.741579        -0.148677         2.307280
 H        -2.333601        -1.721245         1.811491
 H         1.020837        -1.916595         1.358172
 H        -0.816055        -1.152057        -1.683358
 H        -1.004772        -3.232080        -1.082533
