19
Iteration:  1938charge 0 multiplicity 1
 C         1.507841         0.700178         0.074077
 C         0.066570         0.194507         0.031040
 C        -0.956303         0.854942        -0.407228
 C        -2.073717        -0.174735        -0.279234
 C        -1.802922        -0.774703         1.184375
 C        -0.442666        -1.159477         0.490682
 O         0.617184        -2.018202         0.771193
 C        -1.384547        -1.578423        -0.767123
 O        -2.146554        -2.788099        -0.611529
 H         2.267514         0.014023         0.399606
 H         1.894957         0.999013        -0.996208
 H         1.530639         1.548079         0.800946
 H        -0.975009         1.875668        -0.844029
 H        -3.128039         0.137350        -0.504382
 H        -1.748648        -0.073304         2.090980
 H        -2.451416        -1.714452         1.281217
 H         0.285524        -2.942039         0.745065
 H        -0.949545        -1.365979        -1.794257
 H        -2.184340        -3.190292        -1.522808
