19
Iteration:  2491charge 0 multiplicity 1
 C         1.446320         0.644103         0.155009
 C         0.050082         0.258575         0.128234
 C        -1.085482         0.948961        -0.207003
 C        -2.153835        -0.176742        -0.055999
 C        -1.623583        -0.925899         1.256839
 C        -0.436464        -1.150410         0.368345
 O         0.498916        -2.243424         0.518938
 C        -1.404962        -1.426629        -0.837924
 O        -1.974016        -2.725572        -0.814134
 H         1.857936         1.282623        -0.593517
 H         1.626208         1.183011         1.069286
 H         2.232886        -0.138810         0.180294
 H        -1.203831         1.975469        -0.223459
 H        -3.197833         0.080068        -0.118230
 H        -1.469566        -0.219468         2.136076
 H        -2.265780        -1.756529         1.575929
 H         1.371817        -2.005295         0.428731
 H        -1.206280        -1.154623        -1.853335
 H        -2.609450        -2.682689        -1.456083
