19
Iteration:  2486charge 0 multiplicity 1
 C         1.464834         0.620388         0.206319
 C         0.056312         0.257602         0.102214
 C        -1.129377         0.911473        -0.244262
 C        -2.165589        -0.220582        -0.064184
 C        -1.612670        -0.888674         1.295935
 C        -0.409598        -1.181214         0.362636
 O         0.496220        -2.233554         0.500006
 C        -1.421742        -1.381859        -0.766859
 O        -1.970318        -2.696208        -0.832296
 H         1.930470         1.301195        -0.605851
 H         1.787015         1.205563         1.120457
 H         2.198562        -0.189497         0.119165
 H        -1.283751         2.050180        -0.426030
 H        -3.237109         0.096958        -0.169473
 H        -1.604198        -0.163342         2.108908
 H        -2.111478        -1.894164         1.549352
 H         1.499923        -1.930438         0.472885
 H        -1.231686        -1.159477        -1.865013
 H        -2.709526        -2.722678        -1.574409
