19
Iteration:  4099
 C         1.625439         0.457596        -0.263984
 C         0.207418         0.092367        -0.177674
 C        -0.755198         0.464340        -1.107375
 C        -1.972768        -0.400977        -0.795113
 C        -2.088929        -0.422936         0.933086
 C        -0.618224        -0.908666         0.646393
 O         0.068469        -1.546897         1.766335
 C        -1.155733        -1.779825        -0.635217
 O        -1.920789        -2.835494        -0.208986
 H         2.290945        -0.346490         0.226354
 H         1.874898         0.456323        -1.345642
 H         1.789243         1.444638         0.257859
 H        -0.677353         1.430179        -1.506721
 H        -2.882260        -0.085169        -1.400019
 H        -2.195076         0.529065         1.317223
 H        -2.789799        -1.294187         1.275439
 H         1.126687        -1.627451         1.594926
 H        -0.359232        -2.082429        -1.454866
 H        -2.415615        -3.187614        -0.921581
