19
Iteration:  3739charge 0 multiplicity 1
 C         1.486426         0.580640         0.052538
 C         0.153809         0.164265        -0.195337
 C        -0.896000         0.681312        -0.908274
 C        -2.025139        -0.306334        -0.562717
 C        -1.964627        -0.361839         0.919504
 C        -0.513838        -1.058516         0.494851
 O         0.450003        -1.755799         1.327565
 C        -1.272062        -1.747455        -0.659327
 O        -1.998471        -2.965441        -0.344682
 H         2.104377         1.030147        -0.767752
 H         1.566902         1.292953         0.946952
 H         2.038384        -0.263083         0.456450
 H        -0.693616         1.325150        -1.786202
 H        -2.962203        -0.132619        -1.017887
 H        -1.892141         0.501251         1.649952
 H        -2.499752        -1.143944         1.458076
 H         0.080747        -2.671519         1.552049
 H        -0.538196        -1.961740        -1.418389
 H        -3.006912        -2.725359        -0.359628
