19
Iteration:    27charge 0 multiplicity 1
 C         1.560739         0.788295         0.200154
 C         0.083137         0.370113         0.171000
 C        -1.073706         0.913793         0.093280
 C        -2.088575        -0.243420        -0.094066
 C        -1.710546        -1.059326         1.163020
 C        -0.377107        -1.208642         0.239863
 O         0.479597        -2.282237         0.268821
 C        -1.438579        -1.378233        -0.863627
 O        -2.082683        -2.611374        -0.675923
 H         2.365409         0.120444         0.819960
 H         2.035732         0.688285        -0.806689
 H         1.773142         1.799641         0.595987
 H        -1.486270         1.943125         0.013883
 H        -3.134695         0.048092        -0.302738
 H        -1.779002        -0.305131         1.962092
 H        -2.179434        -1.985388         1.462279
 H         0.495968        -2.620160         1.177299
 H        -1.211500        -1.188204        -1.941677
 H        -1.657440        -3.260111        -1.275283
