19
Iteration:  3360charge 0 multiplicity 1
 C         1.438351         0.603982        -0.082753
 C         0.075859         0.188417         0.003523
 C        -0.980588         0.806170        -0.562980
 C        -2.117047        -0.195945        -0.293199
 C        -1.781077        -0.592198         1.166329
 C        -0.430678        -1.153505         0.525659
 O         0.458769        -1.976118         1.181974
 C        -1.346909        -1.568844        -0.791280
 O        -1.870330        -2.858902        -0.747726
 H         1.403790         1.208633        -1.039893
 H         1.837324         1.186935         0.768427
 H         2.078226        -0.287321        -0.176004
 H        -1.041224         1.557970        -1.460127
 H        -3.055465         0.055860        -0.820649
 H        -1.856745         0.309569         1.900446
 H        -2.545145        -1.249329         1.616355
 H         0.154282        -2.929267         0.925604
 H        -0.815620        -1.497487        -1.741974
 H        -2.816408        -2.918897        -0.369467
