19
Iteration:  1110charge 0 multiplicity 1
 C         1.549171         0.495456        -0.116801
 C        -0.018929         0.212697        -0.076680
 C        -1.105940         0.739975        -0.506560
 C        -2.177147        -0.275246        -0.183322
 C        -1.678793        -0.658739         1.232153
 C        -0.438356        -1.111824         0.561609
 O         0.554943        -2.013676         1.065575
 C        -1.277630        -1.510387        -0.671147
 O        -2.046625        -2.634983        -0.927663
 H         1.994484        -0.408570        -0.630370
 H         1.717911         1.476810        -0.661938
 H         1.580313         0.680636         0.955764
 H        -1.196466         1.592317        -1.160687
 H        -3.221988        -0.208432        -0.500651
 H        -1.679996         0.105052         2.037775
 H        -2.477360        -1.486358         1.534045
 H         0.300096        -2.066445         2.013392
 H        -0.674803        -1.414318        -1.601269
 H        -1.661442        -3.454915        -0.943961
