19
Iteration:  3675
 C         1.587398         0.634699        -0.105126
 C         0.142721         0.171247        -0.124381
 C        -0.952047         0.737168        -0.829291
 C        -2.068832        -0.312062        -0.553368
 C        -1.865454        -0.515300         0.955307
 C        -0.500044        -1.105483         0.549472
 O         0.340343        -1.856936         1.437716
 C        -1.302531        -1.682915        -0.747179
 O        -1.970827        -2.832576        -0.357754
 H         2.231520        -0.267789         0.108303
 H         2.011019         1.134672        -1.094001
 H         1.674998         1.324762         0.745258
 H        -0.983056         1.582755        -1.553935
 H        -2.976941        -0.115925        -1.044080
 H        -1.812546         0.357109         1.601986
 H        -2.533941        -1.326958         1.278905
 H        -0.241793        -2.369923         1.935920
 H        -0.671774        -1.812520        -1.727732
 H        -2.063640        -3.464034        -1.127982
