19
Iteration:   865
 C         1.591728         0.607827        -0.111918
 C         0.033927         0.269705        -0.030337
 C        -1.113531         0.871195        -0.418429
 C        -2.230218        -0.183702        -0.098279
 C        -1.757501        -0.726605         1.289732
 C        -0.470104        -1.154422         0.501607
 O         0.365703        -2.233013         0.789907
 C        -1.331498        -1.379686        -0.800254
 O        -1.675868        -2.739985        -0.661631
 H         1.844580         0.558683        -1.121752
 H         1.846360         1.512139         0.606202
 H         2.046371        -0.291730         0.287762
 H        -1.310040         1.838882        -0.902039
 H        -3.298326        -0.120719        -0.374959
 H        -1.743812         0.070616         2.065476
 H        -2.493169        -1.487147         1.661001
 H        -0.179032        -3.082578         0.902982
 H        -0.874566        -1.120018        -1.766031
 H        -2.494874        -2.827958        -1.270203
