19
Iteration:  4218charge 0 multiplicity 1
 C         1.560143         0.643742        -0.098093
 C         0.176504         0.085074        -0.280092
 C        -0.825731         0.495917        -1.057812
 C        -1.926155        -0.502118        -0.821538
 C        -1.953581        -0.270859         0.744698
 C        -0.462666        -0.980028         0.600510
 O         0.184148        -1.666464         1.650416
 C        -1.109790        -1.862003        -0.625730
 O        -2.145890        -2.826462        -0.078834
 H         1.920434         1.377564        -0.826641
 H         1.606844         1.271490         0.807542
 H         2.343594        -0.137492         0.049089
 H        -0.658779         1.054672        -1.943742
 H        -2.859822        -0.426547        -1.456366
 H        -1.936554         0.752870         0.959221
 H        -2.732292        -0.887133         1.368555
 H        -0.173032        -1.407879         2.492227
 H        -0.437329        -2.259658        -1.314947
 H        -2.156170        -3.631320        -0.671438
