19
Iteration:  2126
 C         1.509566         0.643799        -0.100540
 C         0.050359         0.193289        -0.010602
 C        -1.090134         0.806129        -0.323837
 C        -2.201725        -0.310457        -0.096613
 C        -1.698934        -0.781301         1.297605
 C        -0.394841        -1.213305         0.611272
 O         0.577559        -2.110922         0.937974
 C        -1.348209        -1.416961        -0.827717
 O        -1.999953        -2.615979        -0.936413
 H         1.605556         1.155518        -1.063362
 H         1.678897         1.315935         0.782946
 H         2.167869        -0.219439        -0.032816
 H        -1.283722         1.768463        -0.934007
 H        -3.220961        -0.246317        -0.435159
 H        -1.358721         0.064921         1.959047
 H        -2.332794        -1.565672         1.811660
 H         0.231937        -2.965643         0.857066
 H        -0.945692        -1.150223        -1.830036
 H        -2.648124        -2.448497        -1.606623
