19
Iteration:  4994charge 0 multiplicity 1
 C         1.660306         0.563524        -0.010073
 C         0.194541         0.076976        -0.359092
 C        -0.498378        -0.041011        -1.456263
 C        -1.772539        -0.742511        -1.074891
 C        -2.131323        -0.163747         0.388522
 C        -0.701246        -0.790537         0.581054
 O        -0.148412        -1.260128         1.829799
 C        -1.071157        -1.895520        -0.329967
 O        -2.080204        -2.740820         0.314127
 H         1.732333         0.729603         1.058288
 H         2.439588        -0.205773        -0.325861
 H         1.904377         1.461811        -0.580247
 H        -0.236842         0.318497        -2.501361
 H        -2.552713        -1.094994        -1.821065
 H        -2.170246         0.972008         0.478884
 H        -2.981954        -0.554585         0.757471
 H         0.369312        -0.564350         2.221686
 H        -0.362032        -2.516839        -0.901924
 H        -1.627884        -3.468091         0.603812
