19
Iteration:  3228charge 0 multiplicity 1
 C         1.450611         0.710638         0.022241
 C         0.077948         0.152254        -0.044429
 C        -1.005099         0.887278        -0.451604
 C        -2.079999        -0.284769        -0.332565
 C        -1.710364        -0.742556         1.166698
 C        -0.399757        -1.190327         0.450459
 O         0.553858        -2.012917         1.053354
 C        -1.366097        -1.555290        -0.844525
 O        -2.149010        -2.734911        -0.659026
 H         1.923562         0.813864         1.030335
 H         2.146697         0.176500        -0.636580
 H         1.532928         1.721879        -0.330656
 H        -1.064874         1.849030        -0.889635
 H        -3.172135        -0.078410        -0.544076
 H        -1.570154         0.100568         1.937934
 H        -2.305560        -1.590503         1.419156
 H         0.033959        -2.705211         1.411618
 H        -0.950950        -1.616580        -1.931121
 H        -1.619051        -3.297607        -1.242210
