19
Iteration:  4726
 C         1.617144         0.588206        -0.020182
 C         0.220217        -0.026414        -0.319872
 C        -0.512351         0.088907        -1.413740
 C        -1.886315        -0.571099        -0.892610
 C        -2.043037        -0.072257         0.547668
 C        -0.621861        -0.813326         0.587206
 O        -0.050518        -1.251972         1.783788
 C        -1.238575        -1.905377        -0.399531
 O        -2.089046        -2.934919         0.091787
 H         1.794919         0.931300         1.033497
 H         2.315878        -0.219960        -0.183013
 H         1.893718         1.342486        -0.770062
 H        -0.489256         0.604834        -2.325429
 H        -2.669189        -0.640863        -1.684171
 H        -2.008194         0.939147         0.628106
 H        -2.761881        -0.727152         1.123704
 H         0.777606        -1.776916         1.646413
 H        -0.466063        -2.369919        -1.061251
 H        -1.559545        -3.408119         0.675084
