19
Iteration:  4222
 C         1.553096         0.641708        -0.079521
 C         0.158225         0.081401        -0.286826
 C        -0.843909         0.522102        -1.093671
 C        -1.912105        -0.518069        -0.813172
 C        -1.939999        -0.256644         0.703045
 C        -0.438266        -0.997377         0.621379
 O         0.190038        -1.705415         1.673257
 C        -1.130434        -1.880874        -0.596755
 O        -2.128944        -2.808123        -0.091747
 H         1.862525         1.482880        -0.811800
 H         1.568840         1.186128         0.900959
 H         2.297057        -0.156308        -0.103023
 H        -0.888155         1.215519        -1.978898
 H        -2.794889        -0.417587        -1.431549
 H        -1.885899         0.847751         1.036171
 H        -2.717570        -0.739699         1.251185
 H        -0.140820        -1.248408         2.505722
 H        -0.406478        -2.308954        -1.401184
 H        -2.195822        -3.619307        -0.572718
