19
Iteration:  2973
 C         1.518199         0.743421         0.021859
 C         0.122721         0.198741         0.025986
 C        -0.979119         0.869560        -0.295777
 C        -2.128701        -0.212775        -0.189986
 C        -1.791876        -0.914675         1.190886
 C        -0.433479        -1.166067         0.411371
 O         0.338048        -2.189833         0.757256
 C        -1.338638        -1.399321        -0.816273
 O        -1.993650        -2.694557        -0.689937
 H         1.926938         0.633100         1.004158
 H         2.217150         0.327131        -0.723912
 H         1.281459         1.780952        -0.284547
 H        -1.176163         1.935392        -0.675268
 H        -3.153688        -0.014371        -0.555976
 H        -1.918560        -0.360269         2.094369
 H        -2.235307        -1.908334         1.143161
 H         1.009650        -1.961032         1.426323
 H        -0.758232        -1.301936        -1.826537
 H        -1.301500        -3.277390        -0.735755
