19
Iteration:  1341charge 0 multiplicity 1
 C         1.564096         0.560068        -0.019305
 C         0.102843         0.225883        -0.191795
 C        -1.041356         0.816437        -0.590056
 C        -2.197210        -0.249566        -0.257025
 C        -1.726177        -0.651665         1.192788
 C        -0.469644        -1.102086         0.400278
 O         0.347208        -1.961892         1.197511
 C        -1.289424        -1.485763        -0.774436
 O        -1.839211        -2.870314        -0.692413
 H         1.780589         1.715817        -0.069240
 H         1.938677         0.189002         0.976841
 H         2.043455         0.036297        -0.918475
 H        -1.206575         1.619475        -1.251354
 H        -3.168622        -0.146501        -0.736410
 H        -1.738633         0.096652         2.002878
 H        -2.307905        -1.437962         1.819467
 H        -0.158033        -2.785363         1.520621
 H        -0.811187        -1.332777        -1.765842
 H        -2.767312        -2.863324        -0.659390
