19
Iteration:   578
 C         1.475853         0.739955         0.137187
 C         0.078253         0.192024         0.020760
 C        -1.008420         0.730957        -0.338195
 C        -2.158266        -0.205181        -0.130179
 C        -1.635373        -0.859220         1.194784
 C        -0.391461        -1.156576         0.381573
 O         0.592543        -2.094984         0.719542
 C        -1.382756        -1.443013        -0.820114
 O        -2.159243        -2.632297        -0.687470
 H         1.258297         1.782343         0.252331
 H         2.036207         0.249684         0.978223
 H         1.938364         0.410192        -0.820881
 H        -1.152995         1.816073        -0.644120
 H        -3.220530        -0.136263        -0.461625
 H        -1.513421        -0.177804         2.107733
 H        -2.122355        -1.849165         1.495290
 H         0.212386        -2.951787         0.704781
 H        -0.945794        -1.323063        -1.809916
 H        -2.113519        -3.031642        -1.541110
