19
Iteration:  3481
 C         1.521587         0.692741         0.055146
 C         0.083504         0.192989        -0.067367
 C        -0.969494         0.667949        -0.734901
 C        -2.121859        -0.289342        -0.485492
 C        -1.818601        -0.550822         1.100440
 C        -0.458018        -1.126626         0.464128
 O         0.334664        -2.038860         1.169547
 C        -1.325492        -1.607073        -0.757084
 O        -1.906210        -2.786278        -0.483536
 H         2.155410        -0.151433         0.395278
 H         1.817872         1.143018        -0.888776
 H         1.692487         1.429743         0.890686
 H        -0.877412         1.499936        -1.412254
 H        -3.057488         0.011522        -0.872473
 H        -1.741910         0.335572         1.751785
 H        -2.461484        -1.364935         1.592357
 H         0.950569        -1.603495         1.827042
 H        -0.869784        -1.644503        -1.706734
 H        -2.365822        -3.085605        -1.318132
