19
Iteration:  4774
 C         1.620372         0.551501        -0.171407
 C         0.276767        -0.081807        -0.337854
 C        -0.637970         0.089805        -1.323901
 C        -1.801852        -0.687927        -0.951283
 C        -1.987735        -0.290713         0.600085
 C        -0.600363        -0.861356         0.657029
 O        -0.092156        -1.143197         1.893437
 C        -1.108513        -1.937045        -0.425784
 O        -2.189698        -2.747180        -0.018511
 H         2.138162        -0.062702         0.525143
 H         2.315882         0.734641        -1.018682
 H         1.458360         1.531309         0.275617
 H        -0.406199         0.891556        -2.119550
 H        -2.539537        -0.662849        -1.737363
 H        -2.064992         0.869981         0.840423
 H        -2.742088        -0.966492         0.971513
 H         0.785823        -0.860396         1.924289
 H        -0.449566        -2.491871        -1.037737
 H        -2.096118        -2.983311         0.970630
