19
Iteration:  3757charge 0 multiplicity 1
 C         1.591621         0.639287         0.059131
 C         0.160901         0.155107        -0.158281
 C        -0.917086         0.594898        -1.020147
 C        -2.006387        -0.372988        -0.649236
 C        -1.857432        -0.516754         0.965113
 C        -0.491705        -0.987146         0.575426
 O         0.313030        -1.764919         1.385108
 C        -1.266054        -1.699234        -0.665128
 O        -2.006713        -2.869534        -0.326182
 H         1.621164         1.423019        -0.665666
 H         1.711934         0.900419         1.079020
 H         2.227631        -0.248846        -0.259653
 H        -1.022990         1.605338        -1.356330
 H        -2.980626        -0.249263        -1.264030
 H        -1.927520         0.499528         1.534566
 H        -2.607100        -1.142878         1.434915
 H         0.298926        -2.726298         1.063586
 H        -0.776259        -1.927200        -1.609349
 H        -2.965400        -2.605005        -0.041073
