19
Iteration:   917charge 0 multiplicity 1
 C         1.544691         0.633657        -0.167610
 C         0.117885         0.142644         0.009843
 C        -1.065339         0.818673        -0.351587
 C        -2.156295        -0.218995        -0.168764
 C        -1.810676        -0.827714         1.244943
 C        -0.452941        -1.200903         0.514093
 O         0.663647        -1.959949         1.106042
 C        -1.379920        -1.495413        -0.822102
 O        -2.131443        -2.659382        -0.859456
 H         1.459183         1.749100        -0.399251
 H         1.908295         0.565815         0.852180
 H         2.107669         0.002511        -0.886043
 H        -1.211228         1.679046        -1.045802
 H        -3.092987         0.041131        -0.649451
 H        -1.781576        -0.116553         2.000668
 H        -2.505405        -1.641491         1.517095
 H         0.487621        -2.933178         0.953118
 H        -0.789773        -1.298524        -1.744137
 H        -1.625142        -3.221188        -1.514399
