19
Iteration:  3397charge 0 multiplicity 1
 C         1.549834         0.608359        -0.085902
 C         0.108818         0.221930        -0.139359
 C        -1.043912         0.779668        -0.600465
 C        -2.067563        -0.261861        -0.317329
 C        -1.822553        -0.665045         1.168633
 C        -0.435207        -1.091693         0.496858
 O         0.360502        -1.947237         1.194143
 C        -1.219166        -1.534892        -0.699240
 O        -2.022675        -2.836722        -0.746324
 H         1.531191         1.713358         0.196918
 H         2.099463         0.101282         0.777772
 H         2.058723         0.542236        -1.139758
 H        -1.132087         1.584624        -1.279576
 H        -2.952529        -0.114721        -0.907755
 H        -1.836266         0.051005         1.924166
 H        -2.241908        -1.708828         1.407677
 H        -0.065714        -2.577389         1.764263
 H        -0.806229        -1.352729        -1.792084
 H        -1.863828        -3.236015         0.128956
