19
Iteration:   504charge 0 multiplicity 1
 C         1.580615         0.665131         0.063139
 C         0.106769         0.199250         0.010414
 C        -1.149978         0.883298        -0.258886
 C        -2.197909        -0.203307        -0.130495
 C        -1.810325        -0.872008         1.269931
 C        -0.395494        -1.186182         0.409151
 O         0.576578        -2.154843         0.606250
 C        -1.394430        -1.398295        -0.812004
 O        -1.891548        -2.679771        -0.698213
 H         1.934352         0.925916        -0.921855
 H         1.618471         1.508445         0.792147
 H         1.933494        -0.231509         0.548655
 H        -1.199577         1.900100        -0.738658
 H        -3.245608         0.075463        -0.361094
 H        -1.606681        -0.186909         2.111871
 H        -2.453818        -1.796203         1.415475
 H         0.159983        -2.984718         0.887067
 H        -1.056928        -1.089091        -1.835051
 H        -2.859872        -2.689040        -0.925351
