19
Iteration:  2661charge 0 multiplicity 1
 C         1.452103         0.813914         0.104422
 C         0.110312         0.280214         0.160332
 C        -1.014713         0.854453        -0.116590
 C        -2.096519        -0.176539        -0.023020
 C        -1.698801        -0.907868         1.225271
 C        -0.439841        -1.251202         0.383148
 O         0.508644        -2.256140         0.479701
 C        -1.366210        -1.405964        -0.828252
 O        -2.123353        -2.725811        -0.836360
 H         1.546021         1.826434         0.627519
 H         2.238949         0.243942         0.629142
 H         1.933825         0.911934        -0.847855
 H        -1.214994         1.852755        -0.405833
 H        -3.144088         0.080677        -0.317575
 H        -1.646195        -0.288373         2.062695
 H        -2.213933        -1.826559         1.492654
 H         0.907325        -2.200075         1.336670
 H        -0.892754        -1.220418        -1.847865
 H        -2.000100        -3.028583        -1.773747
