19
Iteration:  2950charge 0 multiplicity 1
 C         1.502203         0.748632         0.029092
 C         0.041574         0.302790         0.032959
 C        -1.089844         0.884500        -0.351525
 C        -2.162103        -0.157227        -0.163411
 C        -1.768279        -0.801373         1.282183
 C        -0.447316        -1.193301         0.426630
 O         0.394217        -2.385393         0.788041
 C        -1.351695        -1.412557        -0.795635
 O        -1.897745        -2.692251        -0.856402
 H         1.800195         1.065831         1.001499
 H         2.077382        -0.170258        -0.094056
 H         1.787728         1.403392        -0.809242
 H        -1.262449         1.919621        -0.862474
 H        -3.253159         0.078184        -0.367123
 H        -1.573847        -0.094188         2.098955
 H        -2.349687        -1.676241         1.460616
 H         1.311427        -2.136991         1.146953
 H        -0.768763        -1.263428        -1.793776
 H        -1.376712        -3.214878        -0.098940
