19
Iteration:  2371
 C         1.520633         0.681219        -0.064624
 C         0.046564         0.242965         0.068224
 C        -1.128535         0.883360        -0.148606
 C        -2.151279        -0.188330        -0.007150
 C        -1.719603        -0.823674         1.367999
 C        -0.447529        -1.269251         0.469600
 O         0.529987        -2.226281         0.714724
 C        -1.376628        -1.413788        -0.823812
 O        -1.975260        -2.654900        -0.911219
 H         1.746162         1.641661         0.505656
 H         2.228315        -0.043472         0.293072
 H         1.796580         0.972765        -1.118582
 H        -1.321592         1.776290        -0.766511
 H        -3.239523         0.037195        -0.111411
 H        -1.375957        -0.199752         2.196885
 H        -2.455883        -1.520352         1.700904
 H         0.613117        -2.796542        -0.144622
 H        -1.049535        -0.942809        -1.785408
 H        -1.701687        -3.046617        -1.836038
