19
Iteration:  2143
 C         1.507459         0.656949        -0.030246
 C         0.091776         0.246191         0.045729
 C        -1.064323         0.839129        -0.259090
 C        -2.116609        -0.235420        -0.117468
 C        -1.657406        -0.813494         1.315920
 C        -0.422936        -1.170966         0.348646
 O         0.500736        -2.055812         0.881677
 C        -1.385191        -1.455417        -0.843425
 O        -2.016777        -2.777912        -0.872331
 H         1.855182         0.899569        -1.037023
 H         1.729143         1.505822         0.644404
 H         2.266585        -0.098881         0.307163
 H        -1.218290         1.790939        -0.723328
 H        -3.185492         0.037675        -0.326725
 H        -1.630798        -0.028416         2.086906
 H        -2.170682        -1.709558         1.676965
 H         0.014089        -2.823879         1.054010
 H        -0.921625        -1.142160        -1.792454
 H        -2.867002        -2.763523        -1.438278
