19
Iteration:  3592charge 0 multiplicity 1
 C         1.586014         0.536405        -0.012555
 C         0.149028         0.164845        -0.109455
 C        -0.955669         0.744225        -0.739564
 C        -2.158401        -0.294699        -0.457766
 C        -1.841955        -0.565693         1.054166
 C        -0.501009        -1.075514         0.462681
 O         0.387340        -1.742297         1.306013
 C        -1.268745        -1.629554        -0.784643
 O        -2.032168        -2.901184        -0.497448
 H         1.761130         1.507883         0.488852
 H         2.036357        -0.234059         0.574860
 H         2.233146         0.514083        -0.927413
 H        -0.872702         1.457180        -1.633833
 H        -3.168114        -0.031786        -0.904386
 H        -1.683047         0.308074         1.664623
 H        -2.540827        -1.290204         1.635987
 H        -0.204640        -2.085131         2.017787
 H        -0.671378        -1.721973        -1.627640
 H        -1.647687        -3.548499        -1.044939
