19
Iteration:  4771charge 0 multiplicity 1
 C         1.599475         0.555307        -0.152258
 C         0.279085        -0.064658        -0.375075
 C        -0.624212         0.092021        -1.320090
 C        -1.793830        -0.694007        -0.952923
 C        -1.999209        -0.277156         0.595493
 C        -0.573218        -0.875166         0.662900
 O        -0.090836        -1.145205         1.904102
 C        -1.106749        -1.932830        -0.422548
 O        -2.195591        -2.747131        -0.016990
 H         2.111118        -0.036629         0.623400
 H         2.199758         0.578894        -1.076497
 H         1.526612         1.577461         0.223064
 H        -0.474105         0.875073        -2.023479
 H        -2.581838        -0.635408        -1.668752
 H        -2.029742         0.724374         0.746026
 H        -2.755535        -0.980506         1.019364
 H         0.845354        -0.845921         1.903046
 H        -0.443931        -2.534011        -1.074681
 H        -2.171286        -2.943243         0.865043
