19
Iteration:  1195
 C         1.526165         0.617423        -0.047976
 C         0.052837         0.248775         0.006450
 C        -1.023243         0.742269        -0.575935
 C        -2.189873        -0.216977        -0.246957
 C        -1.718452        -0.634100         1.180768
 C        -0.445198        -1.100662         0.508819
 O         0.371243        -2.099436         1.031951
 C        -1.282621        -1.550414        -0.771687
 O        -1.886882        -2.791566        -0.623729
 H         1.806449         0.626999        -1.096719
 H         1.694943         1.753806         0.306727
 H         2.238968        -0.060320         0.377076
 H        -1.048295         1.610250        -1.170282
 H        -3.153295        -0.119483        -0.749159
 H        -1.772781         0.218837         1.849836
 H        -2.391871        -1.353174         1.638591
 H         0.692245        -2.752021         0.435900
 H        -0.923180        -1.239818        -1.764574
 H        -2.883362        -2.577094        -0.862336
