19
Iteration:  4871charge 0 multiplicity 1
 C         1.711592         0.334448        -0.118937
 C         0.191302         0.047907        -0.330292
 C        -0.562750         0.226775        -1.404781
 C        -1.857602        -0.609383        -1.033406
 C        -2.104022        -0.277079         0.515911
 C        -0.648414        -0.790157         0.649115
 O        -0.150482        -0.976103         1.892731
 C        -1.151260        -1.903527        -0.432195
 O        -1.919861        -2.919645         0.229007
 H         2.061166         0.331860        -1.150488
 H         2.053925         1.203828         0.498444
 H         2.159170        -0.525511         0.415195
 H        -0.332693         0.524515        -2.470310
 H        -2.715272        -0.724161        -1.683244
 H        -2.112695         0.779234         0.700819
 H        -2.822678        -0.848566         1.042631
 H        -0.053022        -1.870739         2.084833
 H        -0.373004        -2.463174        -1.033884
 H        -2.655503        -3.259780        -0.326691
