19
Iteration:  3933
 C         1.658008         0.656765        -0.103627
 C         0.181912         0.138719        -0.269382
 C        -0.890589         0.559084        -1.051619
 C        -2.017458        -0.409412        -0.583326
 C        -1.868241        -0.289034         0.919320
 C        -0.504651        -1.031398         0.551203
 O         0.061731        -1.775446         1.640104
 C        -1.292658        -1.728649        -0.630962
 O        -1.984872        -2.924322        -0.348952
 H         2.271391         0.914179        -0.958178
 H         1.384810         1.489776         0.521197
 H         2.181016        -0.174652         0.504474
 H        -0.839724         1.000273        -2.134134
 H        -2.879269        -0.341545        -1.177428
 H        -1.820517         0.846252         1.034201
 H        -2.464257        -0.880531         1.536454
 H         0.845109        -2.104722         1.357682
 H        -0.628536        -1.831781        -1.593196
 H        -1.453163        -3.339559         0.418868
