19
Iteration:  1760
 C         1.496925         0.645530         0.211743
 C         0.113172         0.209660        -0.087489
 C        -1.025151         0.854508        -0.592734
 C        -2.111966        -0.206459        -0.261201
 C        -1.754245        -0.570490         1.196967
 C        -0.444676        -1.128163         0.468227
 O         0.563856        -2.103226         0.781963
 C        -1.318792        -1.567465        -0.801380
 O        -2.178221        -2.850421        -0.651222
 H         1.403935         1.772474         0.338800
 H         1.783340         0.119539         1.119511
 H         2.251758         0.445901        -0.581540
 H        -1.129563         1.837293        -1.011699
 H        -3.143280        -0.130685        -0.543530
 H        -1.527743         0.317746         1.812329
 H        -2.375618        -1.349315         1.764612
 H         0.488610        -2.658521         1.605691
 H        -0.885124        -1.366205        -1.806864
 H        -1.464211        -3.444589        -0.288782
