19
Iteration:  3789
 C         1.532208         0.672783        -0.073003
 C         0.115638         0.179523        -0.223847
 C        -0.881797         0.632331        -0.932893
 C        -1.945230        -0.272647        -0.579527
 C        -1.850755        -0.427710         0.899241
 C        -0.465082        -1.044411         0.581078
 O         0.158754        -1.849285         1.531472
 C        -1.244681        -1.753035        -0.670649
 O        -1.997768        -2.927634        -0.391447
 H         1.432345         1.721143         0.171441
 H         2.217828         0.181378         0.607244
 H         2.127887         0.709595        -1.055672
 H        -0.734887         1.339185        -1.709376
 H        -2.984421        -0.126870        -1.032571
 H        -1.699069         0.488631         1.522180
 H        -2.662239        -1.059633         1.270928
 H         0.503098        -2.633713         1.183710
 H        -0.619789        -1.924725        -1.592530
 H        -2.247541        -2.974174         0.532124
