19
Iteration:  1421
 C         1.533786         0.616437        -0.077881
 C         0.082413         0.248801        -0.089572
 C        -1.026764         0.767216        -0.585350
 C        -2.117680        -0.262373        -0.393483
 C        -1.754363        -0.722715         1.132765
 C        -0.417022        -1.069213         0.488013
 O         0.299832        -1.996371         1.276029
 C        -1.300699        -1.590057        -0.799192
 O        -2.030266        -2.734766        -0.630943
 H         1.747422         1.679157         0.076490
 H         2.037573         0.062131         0.723720
 H         2.088884         0.213795        -0.990550
 H        -1.145228         1.653525        -1.283512
 H        -3.075954         0.099847        -0.808340
 H        -1.626671         0.039867         1.954008
 H        -2.237383        -1.623253         1.400204
 H         1.233342        -2.283892         1.056939
 H        -0.857602        -1.363212        -1.743079
 H        -1.449001        -3.498892        -0.674213
