19
Iteration:  4751charge 0 multiplicity 1
 C         1.637944         0.549006        -0.079173
 C         0.166986         0.041332        -0.324501
 C        -0.639291         0.223039        -1.425706
 C        -1.834136        -0.660242        -0.968335
 C        -1.932518        -0.162741         0.508806
 C        -0.567522        -0.919791         0.633498
 O        -0.006388        -1.196233         1.962264
 C        -1.166707        -1.991455        -0.399434
 O        -2.230415        -2.882212        -0.002563
 H         1.971796         0.363890         0.923303
 H         2.450852         0.196064        -0.728079
 H         1.603707         1.606501        -0.269421
 H        -0.448472         0.736001        -2.394790
 H        -2.623430        -0.853064        -1.645676
 H        -1.867266         0.970839         0.656616
 H        -2.763051        -0.741735         1.000699
 H         1.041052        -1.171940         1.974873
 H        -0.477390        -2.529121        -1.000591
 H        -2.059847        -3.127695         0.943912
