19
Iteration:  1949
 C         1.557552         0.741674         0.105080
 C         0.197339         0.235768         0.017674
 C        -1.003867         0.822000        -0.431409
 C        -2.133740        -0.270466        -0.192989
 C        -1.814416        -0.824055         1.134737
 C        -0.438833        -1.167674         0.390090
 O         0.639001        -2.050512         0.796377
 C        -1.391333        -1.533085        -0.781763
 O        -2.198880        -2.694083        -0.605742
 H         2.113944         0.063931         0.706464
 H         2.073118         1.083476        -0.907549
 H         1.528823         1.751324         0.610280
 H        -1.123774         1.782820        -1.000999
 H        -3.144838        -0.052328        -0.625116
 H        -1.917547        -0.118086         2.043761
 H        -2.281264        -1.819191         1.467540
 H         0.257795        -2.870938         0.996885
 H        -0.857598        -1.616230        -1.795745
 H        -2.319209        -3.203530        -1.316118
