19
Iteration:  3447
 C         1.521458         0.585844         0.039739
 C         0.098457         0.213069        -0.110860
 C        -1.004839         0.775486        -0.632352
 C        -2.099831        -0.294088        -0.439811
 C        -1.872871        -0.642357         1.082750
 C        -0.472261        -1.082426         0.502324
 O         0.449540        -1.897498         1.104355
 C        -1.253254        -1.673087        -0.709338
 O        -2.056367        -2.770573        -0.565372
 H         1.915772         0.377665         1.053530
 H         2.228757        -0.043534        -0.556291
 H         1.676860         1.607770        -0.271792
 H        -0.891455         1.648020        -1.374789
 H        -3.110866        -0.060196        -0.782440
 H        -1.962952         0.222874         1.817278
 H        -2.522120        -1.479587         1.344429
 H         0.637793        -1.802919         2.138521
 H        -0.595050        -1.720234        -1.522037
 H        -1.636596        -3.512880        -1.131571
