19
Iteration:  3899
 C         1.557161         0.456097        -0.175352
 C         0.097650         0.211098        -0.149657
 C        -0.809815         0.548010        -1.054886
 C        -1.958422        -0.310300        -0.611369
 C        -1.951496        -0.424085         0.906215
 C        -0.559374        -1.021457         0.598099
 O         0.149539        -1.673578         1.639668
 C        -1.240368        -1.688669        -0.647859
 O        -1.942440        -2.922003        -0.381795
 H         2.082375        -0.188576        -0.874845
 H         1.732826         1.466792        -0.561738
 H         2.037507         0.497179         0.869136
 H        -0.885748         1.486223        -1.570167
 H        -2.902531        -0.193276        -1.145950
 H        -2.177696         0.528467         1.469339
 H        -2.582157        -1.155102         1.294888
 H         0.946207        -1.942272         1.177466
 H        -0.565275        -1.877969        -1.562802
 H        -1.595164        -3.203546         0.542665
