19
Iteration:  3011
 C         1.427424         0.664027         0.104558
 C         0.026081         0.269671         0.031137
 C        -1.075108         0.848669        -0.429878
 C        -2.061781        -0.289512        -0.228883
 C        -1.685620        -0.771263         1.198224
 C        -0.367579        -1.107956         0.455347
 O         0.642129        -2.138187         0.840266
 C        -1.334125        -1.522502        -0.778560
 O        -2.231691        -2.671269        -0.831611
 H         2.114971        -0.186179         0.547356
 H         1.855199         0.898368        -0.929958
 H         1.677311         1.500089         0.794363
 H        -1.290403         1.894184        -0.662214
 H        -3.157046        -0.245851        -0.377987
 H        -1.702010        -0.061267         2.098931
 H        -2.190220        -1.716372         1.406045
 H         0.435656        -2.315316         1.853596
 H        -0.761998        -1.432588        -1.665457
 H        -1.663523        -3.340634        -1.313677
