19
Iteration:  4609charge 0 multiplicity 1
 C         1.688747         0.464796        -0.104596
 C         0.237241         0.060347        -0.328927
 C        -0.750015         0.191765        -1.333835
 C        -1.943492        -0.639065        -0.764103
 C        -1.988421        -0.118914         0.639792
 C        -0.511852        -0.841552         0.689659
 O        -0.059658        -1.207200         1.908307
 C        -1.175296        -1.931382        -0.508794
 O        -2.126917        -2.951538        -0.215064
 H         2.390170         0.141860        -0.864269
 H         1.713325         1.581278        -0.249888
 H         2.140567         0.180502         0.875991
 H        -0.548911         0.707516        -2.247444
 H        -2.792845        -0.808491        -1.406713
 H        -1.794231         0.943124         0.797510
 H        -2.744940        -0.640905         1.339627
 H         0.871794        -0.797196         2.080741
 H        -0.306385        -2.242044        -1.097869
 H        -1.612795        -3.614569         0.363117
