19
Iteration:  2393
 C         1.422576         0.755606        -0.024876
 C         0.029523         0.220293         0.117558
 C        -1.030651         0.859506        -0.268917
 C        -2.136554        -0.172283        -0.046098
 C        -1.669458        -1.017964         1.248662
 C        -0.335152        -1.178153         0.414617
 O         0.554935        -2.244791         0.726316
 C        -1.344002        -1.348253        -0.783786
 O        -2.117480        -2.613254        -0.793407
 H         1.578305         1.796553         0.372566
 H         2.179160         0.195644         0.523525
 H         1.827089         0.840307        -1.070588
 H        -1.089242         1.906978        -0.471043
 H        -3.190971        -0.004375        -0.325507
 H        -1.693517        -0.501747         2.215347
 H        -2.131818        -1.981438         1.305004
 H         0.367205        -2.963574         0.185066
 H        -1.028201        -0.902290        -1.766035
 H        -2.012253        -2.949428        -1.651950
