19
Iteration:  1304charge 0 multiplicity 1
 C         1.515035         0.704169         0.058893
 C         0.124480         0.199394        -0.042532
 C        -0.964733         0.784219        -0.632114
 C        -2.146504        -0.264420        -0.335588
 C        -1.860758        -0.600482         1.187728
 C        -0.482805        -1.197152         0.439559
 O         0.519430        -2.014721         0.994598
 C        -1.318124        -1.568417        -0.753721
 O        -2.049248        -2.796578        -0.543084
 H         1.563043         1.515687        -0.594593
 H         1.903180         1.019875         1.108671
 H         2.270899        -0.005969        -0.240183
 H        -0.830333         1.708848        -1.282164
 H        -3.138426        -0.003043        -0.771812
 H        -1.455371         0.157960         1.839055
 H        -2.468476        -1.416011         1.518329
 H         0.026904        -2.709489         1.449894
 H        -0.899861        -1.518941        -1.809975
 H        -1.854850        -3.322180        -1.375316
