19
Iteration:  3473charge 0 multiplicity 1
 C         1.474516         0.644827         0.090312
 C         0.103543         0.279978        -0.103357
 C        -0.997168         0.675999        -0.771143
 C        -2.085824        -0.301985        -0.490379
 C        -1.816621        -0.561579         1.143208
 C        -0.449358        -1.104633         0.468317
 O         0.373693        -2.060753         1.167899
 C        -1.312844        -1.560426        -0.727337
 O        -1.962311        -2.806945        -0.491940
 H         2.078896        -0.184178         0.457647
 H         2.004961         0.771952        -0.850596
 H         1.783586         1.600756         0.572850
 H        -1.076312         1.529454        -1.353907
 H        -3.054528        -0.114502        -0.953419
 H        -1.820808         0.219448         1.855980
 H        -2.595700        -1.348569         1.435958
 H         0.956987        -1.631648         1.904753
 H        -0.618981        -1.559276        -1.639922
 H        -2.199701        -3.138649        -1.425109
