19
Iteration:  2122
 C         1.478647         0.634089        -0.114717
 C         0.058935         0.190999         0.002852
 C        -1.115596         0.790247        -0.359575
 C        -2.184653        -0.283750        -0.090126
 C        -1.699633        -0.793041         1.282859
 C        -0.395512        -1.217814         0.605911
 O         0.598794        -2.114095         0.953444
 C        -1.340573        -1.425827        -0.794414
 O        -1.994324        -2.593814        -0.941859
 H         1.645146         1.190236        -1.030545
 H         1.730525         1.255844         0.792001
 H         2.234892        -0.202575        -0.117187
 H        -1.286476         1.709322        -0.860979
 H        -3.269211        -0.210014        -0.341173
 H        -1.505118         0.077109         1.985798
 H        -2.390850        -1.501782         1.767416
 H         0.205484        -3.047948         0.800055
 H        -0.905824        -1.076566        -1.738032
 H        -2.699192        -2.472759        -1.707826
