19
Iteration:  2377charge 0 multiplicity 1
 C         1.495344         0.707729        -0.045896
 C         0.031652         0.267654         0.063805
 C        -1.081841         0.893864        -0.189227
 C        -2.115058        -0.181743        -0.008042
 C        -1.707519        -0.853605         1.318786
 C        -0.447050        -1.276794         0.474566
 O         0.565392        -2.265074         0.720944
 C        -1.412607        -1.400142        -0.813718
 O        -1.987634        -2.619398        -0.887723
 H         1.522309         1.694519         0.434773
 H         2.156191        -0.095380         0.347004
 H         1.612083         0.914074        -1.102189
 H        -1.367320         1.811237        -0.747715
 H        -3.179428         0.068928        -0.056704
 H        -1.486935        -0.327568         2.292505
 H        -2.485784        -1.675457         1.607045
 H         0.536623        -2.804432        -0.119463
 H        -0.915838        -1.222440        -1.786932
 H        -1.747427        -2.962710        -1.674932
