19
Iteration:  4833charge 0 multiplicity 1
 C         1.628024         0.369673        -0.043718
 C         0.186736        -0.056296        -0.376565
 C        -0.642265         0.178751        -1.441249
 C        -1.900948        -0.614694        -0.956529
 C        -2.008503        -0.050991         0.496789
 C        -0.672832        -0.762967         0.615687
 O        -0.209874        -1.204736         1.848032
 C        -1.112564        -1.893989        -0.364557
 O        -1.897302        -2.889697         0.217856
 H         2.410430        -0.167172        -0.679086
 H         1.777034         1.413667        -0.320068
 H         2.015759         0.130958         0.997222
 H        -0.360407         0.401768        -2.397947
 H        -2.714269        -0.613668        -1.723978
 H        -1.992507         1.072028         0.471743
 H        -2.948391        -0.240847         1.108618
 H         0.702783        -1.585026         1.769189
 H        -0.344381        -2.156252        -1.122824
 H        -1.546125        -3.628401        -0.145276
