19
Iteration:    15charge 0 multiplicity 1
 C         1.641866         0.776211         0.155637
 C         0.139480         0.286213         0.166354
 C        -1.160844         0.904552         0.034309
 C        -2.212368        -0.264107        -0.082519
 C        -1.675910        -1.040409         1.236151
 C        -0.395585        -1.143870         0.307621
 O         0.484668        -2.258057         0.309554
 C        -1.368481        -1.326148        -0.881652
 O        -2.131774        -2.608435        -0.770237
 H         2.143454         0.199929         1.071096
 H         2.056732         0.487945        -0.830981
 H         1.668816         1.820963         0.234480
 H        -1.357526         1.867295         0.428677
 H        -3.270258        -0.077407        -0.311615
 H        -1.512699        -0.552069         2.201348
 H        -2.143687        -1.973742         1.307976
 H         0.675123        -2.589635         1.250055
 H        -0.958004        -1.174998        -1.896672
 H        -1.533764        -3.315669        -1.211864
