19
Iteration:  2270
 C         1.485934         0.742173         0.025910
 C         0.022492         0.271545         0.073375
 C        -1.143442         0.888134        -0.164055
 C        -2.119284        -0.190238        -0.078063
 C        -1.627098        -0.896178         1.179268
 C        -0.323311        -1.220970         0.393869
 O         0.600516        -2.195062         0.723767
 C        -1.391791        -1.467028        -0.872994
 O        -2.094042        -2.677689        -0.794549
 H         2.147629         0.259869         0.840485
 H         2.026643         0.551096        -0.894695
 H         1.578590         1.819003         0.175501
 H        -1.141074         1.761695        -0.801968
 H        -3.223880        -0.144777        -0.209984
 H        -1.569467        -0.191521         2.022315
 H        -2.256849        -1.826899         1.353749
 H         0.159877        -2.795673         1.344227
 H        -0.895345        -1.290969        -1.837982
 H        -2.725285        -2.575281        -1.426869
