19
Iteration:  2983
 C         1.529691         0.767937         0.039349
 C         0.128427         0.186747         0.059807
 C        -1.023297         0.847084        -0.253815
 C        -2.120472        -0.238986        -0.283136
 C        -1.792411        -0.925587         1.206945
 C        -0.498331        -1.147559         0.368390
 O         0.435263        -2.187361         0.780556
 C        -1.385092        -1.433972        -0.840941
 O        -2.022599        -2.665586        -0.687517
 H         2.181172         0.523289         0.820932
 H         2.082552         0.438053        -0.816936
 H         1.615811         1.850544         0.113317
 H        -0.979071         1.822972        -0.890004
 H        -3.162435         0.026653        -0.599550
 H        -1.620178        -0.273244         2.078021
 H        -2.297698        -1.823664         1.560889
 H         0.825273        -1.804229         1.652389
 H        -0.885020        -1.359735        -1.896853
 H        -1.396143        -3.293178        -0.951159
