19
Iteration:  3935charge 0 multiplicity 1
 C         1.664382         0.666497        -0.085319
 C         0.174006         0.136364        -0.266034
 C        -0.875041         0.551015        -1.054285
 C        -2.010193        -0.405288        -0.592564
 C        -1.859337        -0.279718         0.906538
 C        -0.503699        -1.014163         0.570355
 O         0.066352        -1.775167         1.629146
 C        -1.311776        -1.755576        -0.660760
 O        -1.994030        -2.934638        -0.334395
 H         2.231765         0.988062        -0.970213
 H         1.458342         1.482878         0.598993
 H         2.207222        -0.130391         0.398752
 H        -0.899165         1.049424        -2.133826
 H        -2.906713        -0.265089        -1.141044
 H        -1.800662         0.816646         1.065455
 H        -2.572961        -0.928499         1.511478
 H         0.923727        -2.135844         1.393172
 H        -0.684008        -1.836174        -1.546543
 H        -1.431924        -3.340441         0.439544
