19
Iteration:   943
 C         1.535832         0.622780        -0.060706
 C         0.024813         0.282707         0.131499
 C        -1.027810         0.775618        -0.502771
 C        -2.098030        -0.342907        -0.253601
 C        -1.703295        -0.918831         1.182485
 C        -0.413297        -1.108852         0.520743
 O         0.691119        -1.911853         1.019163
 C        -1.291280        -1.599905        -0.837439
 O        -2.311409        -2.551818        -0.817527
 H         1.626388         1.603122         0.314833
 H         2.234863        -0.071330         0.615261
 H         1.645002         0.408864        -1.103862
 H        -1.344254         1.785798        -0.722939
 H        -3.120492        -0.158974        -0.680401
 H        -1.770908        -0.195005         2.083616
 H        -2.263549        -1.835644         1.332998
 H         0.237514        -2.577898         1.597844
 H        -0.677921        -1.477278        -1.745748
 H        -1.924468        -3.441598        -0.957472
