19
Iteration:  1329
 C         1.481868         0.571122        -0.015264
 C         0.093509         0.211276        -0.150494
 C        -1.052635         0.828723        -0.626633
 C        -2.113829        -0.285813        -0.264387
 C        -1.725444        -0.577480         1.168228
 C        -0.406663        -1.070911         0.492610
 O         0.378620        -2.017628         1.139912
 C        -1.361544        -1.560278        -0.792689
 O        -1.847033        -2.856359        -0.650471
 H         1.617371         1.684518        -0.202391
 H         1.781378         0.335685         1.081347
 H         2.284988         0.030786        -0.590581
 H        -1.074151         1.829714        -1.092806
 H        -3.174375        -0.045306        -0.386002
 H        -1.540020         0.249097         1.830412
 H        -2.282391        -1.556807         1.414092
 H        -0.316687        -2.525325         1.507045
 H        -0.964796        -1.413852        -1.836398
 H        -2.769246        -2.873661        -1.163885
