19
Iteration:   573charge 0 multiplicity 1
 C         1.490018         0.717624         0.161888
 C         0.115064         0.183318        -0.053015
 C        -1.081895         0.777060        -0.357661
 C        -2.156068        -0.218062        -0.115157
 C        -1.632357        -0.833284         1.224831
 C        -0.394964        -1.149426         0.407242
 O         0.552628        -2.110243         0.710244
 C        -1.381557        -1.458488        -0.798890
 O        -2.109589        -2.637608        -0.677120
 H         1.324824         1.828516         0.184420
 H         1.864339         0.242976         1.048884
 H         2.098285         0.412415        -0.688691
 H        -1.163893         1.801469        -0.566162
 H        -3.191099        -0.129156        -0.397396
 H        -1.469133        -0.205826         2.047810
 H        -2.059493        -1.784261         1.385353
 H         0.120484        -3.003233         0.426207
 H        -1.028391        -1.271058        -1.848594
 H        -2.040449        -3.012649        -1.626922
