19
Iteration:  1953charge 0 multiplicity 1
 C         1.600567         0.783870         0.129965
 C         0.179865         0.235014        -0.005876
 C        -1.028827         0.792204        -0.444009
 C        -2.151880        -0.291149        -0.202688
 C        -1.799989        -0.858187         1.158926
 C        -0.381656        -1.178319         0.354492
 O         0.628274        -2.055705         0.813293
 C        -1.385733        -1.487718        -0.817372
 O        -2.219573        -2.654199        -0.578702
 H         2.100378         0.028190         0.780079
 H         2.073562         0.934866        -0.849474
 H         1.508111         1.766336         0.559756
 H        -1.247692         1.678241        -0.992596
 H        -3.142101        -0.148283        -0.586414
 H        -1.882942        -0.183105         1.980105
 H        -2.339505        -1.693987         1.516537
 H         0.233318        -2.941726         1.143741
 H        -0.901385        -1.677436        -1.770292
 H        -2.284275        -3.211852        -1.489700
