19
Iteration:  4159
 C         1.587077         0.356829        -0.018652
 C         0.115465         0.065486        -0.311202
 C        -0.924561         0.513320        -1.100155
 C        -1.969228        -0.484160        -0.726788
 C        -1.899256        -0.157364         0.814677
 C        -0.565232        -0.959855         0.567943
 O         0.068583        -1.488012         1.632751
 C        -1.196286        -1.769194        -0.523438
 O        -1.877897        -2.917209        -0.181997
 H         2.148986        -0.143136        -0.817842
 H         1.737934         1.429711        -0.179247
 H         1.989207         0.086474         0.958521
 H        -0.773648         1.288897        -1.929508
 H        -2.933637        -0.470422        -1.171942
 H        -1.816717         0.932078         1.185327
 H        -2.663845        -0.641979         1.350195
 H         0.735488        -2.152920         1.355179
 H        -0.427464        -2.013818        -1.309470
 H        -1.796097        -3.468290        -0.924883
