19
Iteration:  1735
 C         1.508320         0.704037         0.208441
 C         0.087808         0.229978         0.026479
 C        -0.938712         0.740980        -0.631240
 C        -2.135902        -0.261040        -0.336688
 C        -1.787418        -0.769555         1.124367
 C        -0.406834        -1.103694         0.383586
 O         0.469194        -2.153126         0.757778
 C        -1.318014        -1.486261        -0.805646
 O        -2.134991        -2.668693        -0.472954
 H         1.513359         1.753447         0.679637
 H         2.037596        -0.065173         0.673605
 H         1.969162         0.842224        -0.781034
 H        -1.107340         1.676082        -1.213919
 H        -3.165420        -0.226409        -0.769071
 H        -1.469741        -0.140255         1.997166
 H        -2.338529        -1.645364         1.456351
 H         0.476170        -2.157271         1.714816
 H        -0.866409        -1.304783        -1.786276
 H        -1.473579        -3.104629        -0.044347
