19
Iteration:  2401charge 0 multiplicity 1
 C         1.521311         0.787343         0.007632
 C         0.119411         0.223370         0.116301
 C        -1.083156         0.821753        -0.198521
 C        -2.151101        -0.240663        -0.092509
 C        -1.663244        -1.031516         1.228252
 C        -0.323386        -1.212420         0.386958
 O         0.533526        -2.158563         0.723944
 C        -1.345506        -1.369769        -0.857249
 O        -2.151268        -2.572658        -0.753254
 H         1.441255         1.905732         0.262209
 H         2.175490         0.248070         0.646764
 H         1.861913         0.763104        -1.035203
 H        -1.129202         1.909943        -0.511575
 H        -3.238552        -0.094844        -0.362186
 H        -1.520958        -0.689057         2.304213
 H        -2.232054        -2.031226         1.365287
 H         0.119741        -2.921964         0.410838
 H        -1.250060        -1.073458        -1.898208
 H        -2.190620        -2.916754        -1.675489
