19
Iteration:  1338
 C         1.546775         0.558177        -0.016383
 C         0.084595         0.241224        -0.206546
 C        -1.025971         0.819773        -0.589673
 C        -2.184670        -0.279790        -0.243563
 C        -1.725967        -0.618255         1.178308
 C        -0.445136        -1.102818         0.425545
 O         0.352599        -1.981734         1.185284
 C        -1.289580        -1.494793        -0.773777
 O        -1.836844        -2.868332        -0.685456
 H         1.687856         1.617504        -0.090423
 H         1.879559         0.253241         1.059165
 H         2.066310         0.073021        -0.830486
 H        -1.124097         1.734657        -1.268101
 H        -3.207530        -0.109006        -0.647604
 H        -1.696113         0.057970         2.006008
 H        -2.283658        -1.425771         1.749655
 H        -0.245615        -2.634554         1.496055
 H        -0.908565        -1.395761        -1.833286
 H        -2.888430        -2.918112        -0.798649
