19
Iteration:  2492
 C         1.447884         0.650224         0.145143
 C         0.045373         0.259884         0.129326
 C        -1.074840         0.948381        -0.197012
 C        -2.150761        -0.168145        -0.052472
 C        -1.630017        -0.931029         1.253671
 C        -0.437475        -1.149011         0.366237
 O         0.495546        -2.245746         0.524170
 C        -1.405109        -1.432787        -0.851711
 O        -1.973482        -2.730626        -0.808234
 H         1.821332         1.287177        -0.604861
 H         1.599082         1.190353         1.086708
 H         2.227501        -0.149299         0.196452
 H        -1.198772         1.999888        -0.198851
 H        -3.192427         0.070440        -0.114510
 H        -1.440191        -0.258327         2.116176
 H        -2.275898        -1.712023         1.568009
 H         1.391621        -1.993024         0.415554
 H        -1.171542        -1.141509        -1.867382
 H        -2.615083        -2.679063        -1.457670
