19
Iteration:  1142charge 0 multiplicity 1
 C         1.547900         0.543926        -0.248856
 C         0.152841         0.256133         0.079599
 C        -1.011311         0.829562        -0.410159
 C        -2.126894        -0.182038        -0.251016
 C        -1.800620        -0.779564         1.205207
 C        -0.485253        -1.096446         0.542205
 O         0.456178        -1.952074         1.097415
 C        -1.405377        -1.523731        -0.866573
 O        -1.948925        -2.801356        -0.692377
 H         1.826447        -0.034533        -1.159612
 H         1.604628         1.662369        -0.322471
 H         2.140661         0.100798         0.539452
 H        -1.080890         1.774794        -0.919173
 H        -3.117986         0.061183        -0.651275
 H        -1.815785        -0.061977         2.024724
 H        -2.543126        -1.607740         1.240089
 H        -0.068966        -2.563490         1.586090
 H        -0.900196        -1.333310        -1.823883
 H        -1.572428        -3.377095        -1.461711
