19
Iteration:  4148
 C         1.570320         0.350326        -0.083005
 C         0.123779         0.189045        -0.239305
 C        -0.838326         0.459216        -1.162435
 C        -2.009724        -0.411226        -0.717059
 C        -1.897723        -0.180278         0.857460
 C        -0.599852        -0.931314         0.569598
 O         0.036764        -1.518407         1.654214
 C        -1.121090        -1.802198        -0.585678
 O        -1.872194        -2.969822        -0.163414
 H         2.044481        -0.480741        -0.609383
 H         2.038140         1.302295        -0.376972
 H         1.710044         0.103508         0.967424
 H        -1.218959         1.462684        -1.526237
 H        -2.934871        -0.482201        -1.245699
 H        -1.729291         0.957637         1.004345
 H        -2.597218        -0.633371         1.485170
 H         0.829734        -1.832459         1.361759
 H        -0.435495        -1.990643        -1.452290
 H        -2.037980        -3.535485        -0.978993
