19
Iteration:   312charge 0 multiplicity 1
 C         1.437781         0.746681         0.208427
 C         0.032219         0.202107        -0.169687
 C        -1.105860         0.829243        -0.208281
 C        -2.101239        -0.280909         0.055997
 C        -1.516530        -0.844045         1.367766
 C        -0.321498        -1.259074         0.319012
 O         0.573346        -2.247775         0.573542
 C        -1.436017        -1.385234        -0.821008
 O        -2.244913        -2.566648        -0.936280
 H         1.160894         1.371016         1.097970
 H         2.153436         0.023590         0.601044
 H         1.910334         1.268503        -0.614060
 H        -1.368384         1.890957        -0.509944
 H        -3.180713        -0.139071        -0.093866
 H        -1.113232        -0.171299         2.121197
 H        -2.088939        -1.722961         1.709506
 H         1.116512        -2.086659         1.300530
 H        -0.999981        -1.065445        -1.757414
 H        -1.680088        -3.313883        -0.978499
