19
Iteration:  1672charge 0 multiplicity 1
 C         1.502106         0.656661        -0.002563
 C         0.086489         0.220334        -0.030199
 C        -0.983433         0.651984        -0.622985
 C        -2.092934        -0.244303        -0.221363
 C        -1.758883        -0.608238         1.234552
 C        -0.469034        -1.132780         0.541765
 O         0.408067        -2.092983         1.079037
 C        -1.351102        -1.502176        -0.706161
 O        -2.081387        -2.723269        -0.864482
 H         2.114809         0.480380         0.955032
 H         2.096182         0.105279        -0.708469
 H         1.542038         1.746434        -0.263561
 H        -1.081934         1.418081        -1.454493
 H        -3.109154        -0.090998        -0.608361
 H        -1.470257         0.091777         2.087935
 H        -2.387333        -1.468158         1.595399
 H         1.212130        -1.747163         1.531048
 H        -0.790243        -1.434920        -1.691549
 H        -1.525477        -3.406740        -1.066866
