19
Iteration:  2159charge 0 multiplicity 1
 C         1.548807         0.665648         0.052891
 C         0.086827         0.224877         0.033363
 C        -1.066575         0.919484        -0.336319
 C        -2.153049        -0.126619        -0.073196
 C        -1.711267        -0.867593         1.123121
 C        -0.458447        -1.145387         0.377487
 O         0.558338        -2.117910         0.814272
 C        -1.442855        -1.451899        -0.847448
 O        -1.955987        -2.802957        -0.731848
 H         1.936085         0.728208        -0.998394
 H         1.694312         1.727861         0.404464
 H         2.070064        -0.103375         0.600031
 H        -1.196699         2.053527        -0.385368
 H        -3.167148         0.193078        -0.140220
 H        -1.422572        -0.458489         2.150394
 H        -2.335174        -1.841622         1.235645
 H         0.171315        -2.923482         1.219333
 H        -1.129711        -1.323805        -1.892582
 H        -2.849209        -2.806832        -1.350581
