19
Iteration:  1684
 C         1.515307         0.699530         0.024505
 C         0.128875         0.174137         0.005598
 C        -0.972999         0.790359        -0.570658
 C        -2.081891        -0.293184        -0.301764
 C        -1.716274        -0.585932         1.242356
 C        -0.451089        -1.108712         0.540161
 O         0.376771        -2.141644         1.019674
 C        -1.400270        -1.597464        -0.825408
 O        -2.093950        -2.777720        -0.771145
 H         1.833041         0.843179         1.088325
 H         2.174313         0.019395        -0.527133
 H         1.556609         1.688845        -0.490780
 H        -1.114428         1.787522        -1.111898
 H        -3.090968         0.072011        -0.476780
 H        -1.693202         0.391863         1.780903
 H        -2.333326        -1.366911         1.794533
 H         1.086928        -1.723100         1.463930
 H        -0.793740        -1.358654        -1.744784
 H        -1.382272        -3.467327        -1.006962
