19
Iteration:  2154
 C         1.544724         0.662411         0.021765
 C         0.104726         0.252954         0.054652
 C        -1.068580         0.882726        -0.325194
 C        -2.139545        -0.129889        -0.065571
 C        -1.660889        -0.868616         1.142300
 C        -0.423011        -1.174567         0.399448
 O         0.514646        -2.072727         0.827451
 C        -1.444654        -1.511694        -0.823213
 O        -1.973844        -2.787782        -0.798003
 H         1.824555         0.793733        -1.016356
 H         1.662214         1.663487         0.484354
 H         2.121497        -0.152169         0.531080
 H        -1.295266         1.938961        -0.371801
 H        -3.216059         0.158662        -0.185368
 H        -1.475030        -0.280042         2.063918
 H        -2.365519        -1.667460         1.275302
 H         0.054281        -2.846551         1.157261
 H        -1.128205        -1.318000        -1.864766
 H        -2.737026        -2.750209        -1.275215
