19
Iteration:  2936
 C         1.494913         0.640682         0.064950
 C         0.057233         0.251362         0.084537
 C        -1.107951         0.890113        -0.314644
 C        -2.170356        -0.271161        -0.137175
 C        -1.648964        -0.748485         1.300537
 C        -0.462850        -1.187838         0.447227
 O         0.351419        -2.268562         0.772760
 C        -1.367527        -1.381921        -0.827939
 O        -1.879611        -2.727476        -0.948853
 H         1.726980         1.475060         0.697336
 H         2.242883        -0.078187         0.194643
 H         1.680620         1.152795        -0.834792
 H        -1.159329         1.679918        -0.993091
 H        -3.192927        -0.140120        -0.535156
 H        -1.447475         0.148005         2.011038
 H        -2.199838        -1.438441         1.924046
 H         1.141845        -1.874394         1.021024
 H        -1.041243        -1.005898        -1.815729
 H        -1.801526        -3.173494        -0.150040
