19
Iteration:  4080
 C         1.639657         0.513218        -0.233194
 C         0.156392         0.206994        -0.195745
 C        -0.885977         0.587559        -1.049010
 C        -1.923272        -0.443969        -0.708201
 C        -1.903271        -0.324672         0.734370
 C        -0.517416        -1.031272         0.664926
 O         0.045449        -1.590266         1.787951
 C        -1.174877        -1.798316        -0.533824
 O        -2.055490        -2.911170        -0.258350
 H         2.180431        -0.027895         0.575865
 H         2.050749         0.227673        -1.219230
 H         1.762361         1.544843        -0.029248
 H        -0.735009         1.052600        -1.998712
 H        -2.772919        -0.525190        -1.423696
 H        -1.817373         0.640478         1.260693
 H        -2.552221        -1.068728         1.269727
 H         1.046066        -1.802942         1.576621
 H        -0.472395        -2.081465        -1.385411
 H        -2.201932        -3.307160        -1.087020
