19
Iteration:   735
 C         1.534583         0.746435        -0.011323
 C         0.093891         0.277993        -0.004957
 C        -1.098989         0.852015        -0.220884
 C        -2.122995        -0.266779        -0.094153
 C        -1.674257        -0.855496         1.268213
 C        -0.420576        -1.234897         0.308038
 O         0.527248        -2.148698         0.705105
 C        -1.373528        -1.460167        -0.809281
 O        -2.159945        -2.656815        -0.796113
 H         2.159866         0.235653         0.630605
 H         2.116492         0.569356        -0.922433
 H         1.791436         1.726339         0.268267
 H        -1.326026         1.784095        -0.685558
 H        -3.160380        -0.013446        -0.274721
 H        -1.232601        -0.207393         2.073475
 H        -2.190121        -1.805122         1.594394
 H         0.435472        -2.315134         1.654843
 H        -1.037084        -1.413359        -1.825100
 H        -1.659755        -3.247458        -0.178244
