19
Iteration:  4979
 C         1.498445         0.525235        -0.030751
 C         0.234189        -0.029191        -0.305685
 C        -0.522371         0.103747        -1.489907
 C        -1.781144        -0.757804        -1.093647
 C        -1.997192        -0.096776         0.305133
 C        -0.627619        -0.785749         0.656906
 O        -0.134967        -1.224061         1.858145
 C        -1.163485        -1.966421        -0.325869
 O        -2.066134        -2.806430         0.246359
 H         1.648710         1.076818         0.947477
 H         2.263175        -0.319503         0.052958
 H         1.844314         1.226303        -0.841166
 H        -0.257183         0.508020        -2.425593
 H        -2.597223        -0.774639        -1.802470
 H        -2.137289         0.965047         0.366646
 H        -2.775858        -0.682091         1.023774
 H         0.402327        -0.580858         2.305984
 H        -0.248766        -2.491376        -0.801746
 H        -1.595793        -3.213095         1.064943
