19
Iteration:  4273charge 0 multiplicity 1
 C         1.665956         0.645516         0.068870
 C         0.230113         0.065544        -0.260370
 C        -0.733647         0.285654        -1.243558
 C        -2.002104        -0.442235        -0.723675
 C        -2.006568        -0.267885         0.728361
 C        -0.566151        -0.959137         0.612091
 O         0.158408        -1.609548         1.555770
 C        -1.290721        -1.738102        -0.570333
 O        -2.079615        -2.912220        -0.125411
 H         1.560436         1.631760         0.490153
 H         2.166701         0.143494         0.911346
 H         2.223360         0.758629        -0.852734
 H        -0.666629         0.754310        -2.213097
 H        -2.925407        -0.320632        -1.345594
 H        -2.187248         0.714493         1.070331
 H        -2.776102        -0.941343         1.229178
 H         0.834363        -1.021122         1.667488
 H        -0.662221        -2.007572        -1.356804
 H        -1.365212        -3.304877         0.324148
