19
Iteration:  3535
 C         1.577906         0.704145         0.050053
 C         0.093902         0.235455        -0.060935
 C        -0.986267         0.703254        -0.762528
 C        -2.040078        -0.374898        -0.494063
 C        -1.841927        -0.559039         1.037451
 C        -0.460284        -1.096850         0.526807
 O         0.308199        -2.043238         1.197419
 C        -1.220932        -1.591757        -0.801016
 O        -1.989152        -2.808203        -0.421638
 H         1.873265         0.921695        -0.980357
 H         1.445688         1.616016         0.604716
 H         2.121697        -0.096172         0.484867
 H        -1.040513         1.407864        -1.530106
 H        -3.002841        -0.120473        -0.811406
 H        -1.771475         0.347146         1.611948
 H        -2.665008        -1.274609         1.285539
 H         0.815288        -1.514137         1.929107
 H        -0.628432        -1.805478        -1.642890
 H        -2.679202        -2.977006        -1.175005
