19
Iteration:  2244charge 0 multiplicity 1
 C         1.484612         0.738758         0.178341
 C         0.108138         0.127753        -0.101969
 C        -1.091196         0.786175        -0.410266
 C        -2.154130        -0.180401        -0.027970
 C        -1.625455        -0.958740         1.326423
 C        -0.375313        -1.175740         0.323577
 O         0.544557        -2.085333         0.746487
 C        -1.484753        -1.428123        -0.870593
 O        -2.042127        -2.639238        -0.752845
 H         2.212422         0.142397         0.675519
 H         2.036837         1.185059        -0.765180
 H         1.404153         1.699233         0.770829
 H        -1.034336         1.889721        -0.282809
 H        -3.184711         0.065504        -0.136425
 H        -1.309155        -0.200020         2.119431
 H        -2.148617        -1.902583         1.707776
 H         0.170501        -3.013024         0.575666
 H        -1.110294        -1.226489        -1.890864
 H        -2.376097        -2.830571        -1.566319
