19
Iteration:  1611
 C         1.536625         0.491639        -0.228756
 C         0.065978         0.228313         0.062007
 C        -0.974613         0.936950        -0.332124
 C        -2.097098        -0.221132        -0.345931
 C        -1.883952        -0.774188         1.062107
 C        -0.460398        -1.117649         0.515198
 O         0.427425        -1.947118         1.219828
 C        -1.245074        -1.628772        -0.916422
 O        -2.041306        -2.747353        -0.678906
 H         2.063804        -0.469937        -0.343821
 H         1.528850         1.078033        -1.249464
 H         2.096293         1.096714         0.485220
 H        -1.135899         1.966795        -0.778809
 H        -3.037727         0.117311        -0.799977
 H        -1.618722        -0.233159         1.899046
 H        -2.617942        -1.588824         1.215535
 H         0.508078        -1.523027         2.055774
 H        -0.573018        -1.674141        -1.750910
 H        -1.654868        -3.503606        -1.045041
