19
Iteration:  3882charge 0 multiplicity 1
 C         1.691282         0.459083        -0.170088
 C         0.138073         0.131644        -0.115787
 C        -0.901428         0.715668        -0.853368
 C        -2.096750        -0.340414        -0.712764
 C        -2.031480        -0.456600         0.870418
 C        -0.526316        -0.954936         0.577572
 O         0.204115        -1.645245         1.588206
 C        -1.236195        -1.749079        -0.676849
 O        -1.945796        -2.920239        -0.355162
 H         2.121497        -0.577013        -0.285801
 H         1.880050         1.151900        -1.013335
 H         2.040766         0.763797         0.774986
 H        -0.547475         1.048410        -1.912840
 H        -2.998113        -0.198453        -1.291603
 H        -2.053295         0.449582         1.502526
 H        -2.810625        -1.238910         1.248171
 H         1.157589        -1.748790         1.266753
 H        -0.628231        -1.945940        -1.512665
 H        -1.715290        -3.177560         0.613137
