19
Iteration:  4347charge 0 multiplicity 1
 C         1.656459         0.495763        -0.172570
 C         0.203969         0.104579        -0.256343
 C        -0.669954         0.422879        -1.201031
 C        -1.945650        -0.365512        -0.765761
 C        -2.027517        -0.330354         0.756833
 C        -0.628555        -0.890740         0.639455
 O        -0.027763        -1.427195         1.773481
 C        -1.252411        -1.787188        -0.539235
 O        -1.895737        -3.010889        -0.176358
 H         2.303309        -0.151296         0.444102
 H         2.018787         0.412431        -1.257387
 H         1.714177         1.594968         0.116436
 H        -0.510286         0.827245        -2.196181
 H        -2.951081        -0.311640        -1.242804
 H        -2.167881         0.527293         1.342888
 H        -2.836373        -1.139703         0.975686
 H         0.487981        -2.212253         1.498979
 H        -0.541846        -2.052228        -1.418076
 H        -1.748584        -3.131875         0.801531
