19
Iteration:  1635charge 0 multiplicity 1
 C         1.548226         0.497692        -0.176858
 C         0.092119         0.199240         0.023583
 C        -1.049018         0.811672        -0.397350
 C        -2.064291        -0.288301        -0.337965
 C        -1.838666        -0.785202         1.106098
 C        -0.391530        -1.123126         0.530272
 O         0.451025        -1.913776         1.245150
 C        -1.262434        -1.512403        -0.801408
 O        -2.159051        -2.705221        -0.793160
 H         2.185447        -0.373785         0.246117
 H         1.707630         0.536461        -1.265773
 H         1.899658         1.437914         0.235379
 H        -1.215111         1.707979        -0.912670
 H        -2.980005        -0.153538        -0.925717
 H        -1.791289        -0.100523         1.988360
 H        -2.476694        -1.645696         1.258753
 H         0.987139        -1.270638         1.829496
 H        -0.799784        -1.308052        -1.777457
 H        -1.571203        -3.384630        -1.129860
