19
Iteration:  3871charge 0 multiplicity 1
 C         1.698399         0.390651        -0.136642
 C         0.103675         0.177423        -0.161651
 C        -0.958332         0.656723        -0.821040
 C        -2.015777        -0.348202        -0.656804
 C        -2.001171        -0.454062         0.845215
 C        -0.575628        -0.978310         0.599777
 O         0.194777        -1.638801         1.538403
 C        -1.204970        -1.735062        -0.710988
 O        -1.944616        -2.899954        -0.346473
 H         2.323315        -0.541747         0.034619
 H         2.097525         0.712179        -1.119506
 H         1.955565         1.159299         0.529765
 H        -0.863405         1.395978        -1.711587
 H        -2.933410        -0.172258        -1.179035
 H        -2.263907         0.493670         1.307452
 H        -2.607590        -1.316163         1.312367
 H         1.047443        -1.515292         1.223021
 H        -0.509046        -1.962201        -1.474697
 H        -1.777497        -3.004317         0.657965
