19
Iteration:  4104
 C         1.643124         0.421249        -0.252660
 C         0.186529         0.059383        -0.185537
 C        -0.746141         0.427365        -1.083437
 C        -1.998846        -0.348336        -0.737450
 C        -2.128900        -0.460489         0.881967
 C        -0.622797        -0.920875         0.654380
 O         0.063118        -1.511101         1.722004
 C        -1.153232        -1.768629        -0.648575
 O        -1.866683        -2.820021        -0.184955
 H         2.306461        -0.317678         0.136384
 H         1.842152         0.630347        -1.310644
 H         1.688977         1.297121         0.374797
 H        -0.544500         1.366721        -1.712382
 H        -2.773420        -0.021985        -1.419076
 H        -2.176804         0.556469         1.474622
 H        -2.658041        -1.277817         1.271805
 H         0.948775        -1.533507         1.520007
 H        -0.418274        -2.022553        -1.409055
 H        -2.484800        -3.155020        -0.901750
