19
Iteration:  4727charge 0 multiplicity 1
 C         1.612579         0.593459        -0.025165
 C         0.228286        -0.022117        -0.319054
 C        -0.513360         0.095389        -1.406018
 C        -1.880581        -0.575032        -0.904568
 C        -2.037399        -0.077606         0.546839
 C        -0.622847        -0.809652         0.592970
 O        -0.046798        -1.251044         1.785443
 C        -1.237624        -1.913884        -0.400191
 O        -2.097877        -2.939789         0.088626
 H         1.793122         0.874028         1.018960
 H         2.309645        -0.216382        -0.200480
 H         1.897810         1.350791        -0.748077
 H        -0.504084         0.573374        -2.321278
 H        -2.669478        -0.624511        -1.662000
 H        -2.002612         0.959843         0.631230
 H        -2.785997        -0.711636         1.152381
 H         0.756284        -1.730859         1.638627
 H        -0.471544        -2.356347        -1.043307
 H        -1.578848        -3.403728         0.689883
