19
Iteration:   948charge 0 multiplicity 1
 C         1.527201         0.613691        -0.029919
 C         0.027659         0.312274         0.130518
 C        -1.042848         0.761444        -0.508863
 C        -2.100450        -0.303726        -0.291608
 C        -1.687096        -0.930493         1.212605
 C        -0.394577        -1.152042         0.489640
 O         0.664569        -1.913525         1.017968
 C        -1.316775        -1.579011        -0.856532
 O        -2.293806        -2.553639        -0.800206
 H         1.735427         1.621878         0.510431
 H         2.173644        -0.031694         0.412685
 H         1.842100         0.484080        -1.121783
 H        -1.439655         1.769218        -0.692987
 H        -3.107991        -0.247604        -0.666316
 H        -1.652446        -0.196853         1.993351
 H        -2.277737        -1.853474         1.412247
 H         0.357339        -2.479357         1.716236
 H        -0.710088        -1.646364        -1.791010
 H        -1.971737        -3.461713        -0.885149
