19
Iteration:  2425charge 0 multiplicity 1
 C         1.526422         0.773069         0.096996
 C         0.117244         0.236532         0.073408
 C        -1.110542         0.909357        -0.100854
 C        -2.124157        -0.205221        -0.074267
 C        -1.645461        -0.961170         1.181432
 C        -0.349200        -1.280285         0.302986
 O         0.640972        -2.160201         0.657929
 C        -1.434723        -1.430040        -0.918246
 O        -2.195149        -2.678530        -0.786826
 H         1.556773         1.887290        -0.044676
 H         1.940343         0.454993         1.045750
 H         2.156496         0.345835        -0.724028
 H        -1.242261         1.977722        -0.210853
 H        -3.179776         0.112189        -0.142819
 H        -1.579392        -0.262257         2.056487
 H        -2.151190        -1.846224         1.601251
 H         0.333497        -2.562546         1.544586
 H        -1.129067        -1.141038        -1.943619
 H        -2.548449        -2.924207        -1.744201
