19
Iteration:  3185
 C         1.464041         0.530288         0.015798
 C         0.057491         0.291993         0.009956
 C        -1.006841         0.872752        -0.542188
 C        -2.106445        -0.219341        -0.289921
 C        -1.774895        -0.845370         1.201566
 C        -0.486574        -1.119098         0.518628
 O         0.554365        -1.966454         0.945930
 C        -1.345581        -1.505950        -0.750492
 O        -1.998743        -2.750425        -0.652232
 H         1.639268         1.507726         0.604828
 H         2.067223        -0.312536         0.396208
 H         1.762799         0.815182        -1.011484
 H        -0.970798         1.730946        -1.196472
 H        -3.157592        -0.185990        -0.683082
 H        -1.823805        -0.143725         2.109085
 H        -2.237403        -1.787257         1.398384
 H         0.198233        -2.808829         1.005511
 H        -0.684786        -1.208291        -1.660629
 H        -2.253378        -3.059166        -1.488591
