19
Iteration:  4865
 C         1.723342         0.314643        -0.094672
 C         0.190725         0.059459        -0.316279
 C        -0.565280         0.222037        -1.480881
 C        -1.895154        -0.606383        -1.054878
 C        -2.080737        -0.263671         0.544079
 C        -0.643214        -0.792579         0.631648
 O        -0.170371        -0.997643         1.909964
 C        -1.181453        -1.900252        -0.432361
 O        -1.896249        -2.910841         0.261815
 H         2.173871         0.246001        -1.097521
 H         1.914758         1.298986         0.337131
 H         2.166854        -0.489374         0.488334
 H        -0.289652         0.571899        -2.415327
 H        -2.710345        -0.715779        -1.828331
 H        -2.130705         0.887069         0.849402
 H        -2.803445        -0.983576         1.027104
 H         0.141257        -1.942555         2.127835
 H        -0.430849        -2.279545        -1.112411
 H        -2.516651        -3.294347        -0.512231
