19
Iteration:   385
 C         1.477803         0.605131        -0.091295
 C         0.119615         0.245074         0.068165
 C        -1.160650         0.967735        -0.052030
 C        -2.153772        -0.165604        -0.099405
 C        -1.715784        -0.965468         1.277017
 C        -0.437954        -1.183193         0.407194
 O         0.495538        -2.249168         0.573767
 C        -1.357305        -1.332017        -0.801982
 O        -1.968539        -2.631336        -0.818128
 H         2.125473        -0.172043         0.506658
 H         1.697131         0.578369        -1.196100
 H         1.505767         1.680507         0.152167
 H        -1.252410         2.089676        -0.052533
 H        -3.218695        -0.061458        -0.417099
 H        -1.554274        -0.319034         2.118242
 H        -2.342856        -1.869691         1.373288
 H         0.754737        -2.493243         1.486917
 H        -1.105143        -0.980460        -1.842685
 H        -1.267167        -3.289946        -0.600425
