19
Iteration:   619charge 0 multiplicity 1
 C         1.549502         0.743578        -0.074061
 C         0.072271         0.237074         0.060269
 C        -1.024237         0.810055        -0.190590
 C        -2.148080        -0.288678        -0.153362
 C        -1.719204        -0.993856         1.182552
 C        -0.283764        -1.161231         0.439241
 O         0.658432        -2.106117         0.877008
 C        -1.368089        -1.476899        -0.804332
 O        -2.365080        -2.582860        -0.893479
 H         1.637606         1.754883         0.414545
 H         2.257579         0.005385         0.264948
 H         1.841590         0.930073        -1.123639
 H        -1.326529         1.891538        -0.421618
 H        -3.207053         0.054801        -0.341966
 H        -1.779934        -0.346137         2.048345
 H        -2.052174        -1.963746         1.180189
 H         0.693435        -1.971791         1.870581
 H        -0.762734        -1.321468        -1.730063
 H        -1.902068        -3.316960        -1.295719
