19
Iteration:  4430charge 0 multiplicity 1
 C         1.568024         0.461217        -0.077990
 C         0.185031         0.072339        -0.280402
 C        -0.680892         0.326058        -1.222122
 C        -1.935051        -0.491576        -0.832891
 C        -2.047609        -0.330349         0.690121
 C        -0.549186        -0.975350         0.574321
 O         0.120538        -1.287545         1.800809
 C        -1.248206        -1.804888        -0.518938
 O        -1.944821        -2.914251        -0.096055
 H         1.933554         0.850774        -1.089234
 H         1.781030         1.273372         0.605435
 H         2.157913        -0.379064         0.229915
 H        -0.702787         1.135821        -1.888988
 H        -2.863182        -0.526133        -1.413470
 H        -2.311109         0.706061         1.176344
 H        -2.758543        -1.014982         1.127261
 H         0.951429        -1.909314         1.564910
 H        -0.520816        -2.148578        -1.254564
 H        -2.947140        -2.704870        -0.160762
