19
Iteration:  1312
 C         1.495160         0.680895         0.057244
 C         0.101379         0.214875        -0.071066
 C        -0.982574         0.737130        -0.633337
 C        -2.134896        -0.200291        -0.335541
 C        -1.754872        -0.596781         1.160036
 C        -0.486905        -1.201167         0.471180
 O         0.471279        -2.025438         1.035918
 C        -1.343617        -1.525163        -0.770136
 O        -1.971755        -2.833074        -0.572338
 H         1.621755         1.601017        -0.538842
 H         1.795649         0.844767         1.049803
 H         2.093867        -0.082097        -0.440731
 H        -1.124692         1.695246        -1.067230
 H        -3.101905         0.115939        -0.748059
 H        -1.581208         0.247718         1.901834
 H        -2.358573        -1.341440         1.634488
 H         0.020983        -2.658119         1.573632
 H        -0.840160        -1.569923        -1.739473
 H        -2.197471        -3.298828        -1.452571
