19
Iteration:  3656
 C         1.568814         0.630226        -0.137913
 C         0.183226         0.166974        -0.014586
 C        -0.885180         0.587583        -0.795267
 C        -2.005514        -0.314858        -0.544204
 C        -1.990714        -0.501261         1.019716
 C        -0.465600        -1.025026         0.546490
 O         0.298511        -1.797013         1.353445
 C        -1.225618        -1.624707        -0.700301
 O        -2.047175        -2.857748        -0.419332
 H         2.250611        -0.028680         0.383067
 H         1.574153         0.452056        -1.194680
 H         1.674926         1.699792         0.078889
 H        -0.884334         1.570500        -1.335936
 H        -2.972360        -0.119466        -1.021461
 H        -1.963950         0.396012         1.541090
 H        -2.595743        -1.354151         1.474053
 H         0.009757        -2.664139         1.286235
 H        -0.596738        -1.797748        -1.600217
 H        -1.633384        -3.563265        -0.896132
