19
Iteration:  2849
 C         1.503896         0.685004        -0.064701
 C         0.024835         0.284873         0.081579
 C        -1.135217         0.886943        -0.142770
 C        -2.095604        -0.233498        -0.121151
 C        -1.725980        -0.940946         1.235575
 C        -0.403458        -1.237399         0.457036
 O         0.573565        -2.212025         0.919503
 C        -1.287949        -1.445538        -0.828251
 O        -2.118926        -2.608859        -1.069973
 H         1.768254         0.928363        -1.103359
 H         1.625566         1.529026         0.600567
 H         2.184848        -0.067814         0.334502
 H        -1.139863         1.731676        -0.755452
 H        -3.102345        -0.069852        -0.478654
 H        -1.795280        -0.261300         2.140578
 H        -2.336489        -1.768473         1.440363
 H         1.341563        -1.592789         1.002179
 H        -0.809709        -1.280821        -1.835890
 H        -2.539105        -2.879528        -0.230178
