19
Iteration:  1287
 C         1.531379         0.732008         0.076019
 C         0.161778         0.217752        -0.029838
 C        -0.960616         0.716219        -0.590249
 C        -2.060778        -0.275211        -0.377386
 C        -1.855425        -0.681377         1.100277
 C        -0.427492        -1.154402         0.539130
 O         0.578242        -1.983832         0.935025
 C        -1.361175        -1.543006        -0.747906
 O        -2.177473        -2.737564        -0.535749
 H         1.761713         1.470274        -0.775723
 H         1.528152         1.242116         1.027306
 H         2.292358        -0.096660         0.013311
 H        -1.118934         1.601763        -1.219601
 H        -3.048374        -0.042621        -0.789150
 H        -2.134904         0.154843         1.768332
 H        -2.491616        -1.606341         1.394424
 H         0.127913        -2.862621         0.984923
 H        -0.860853        -1.746575        -1.679930
 H        -1.756357        -3.574387        -0.622629
