19
Iteration:  2960
 C         1.472991         0.737908         0.013587
 C         0.090371         0.261085         0.016529
 C        -1.077934         0.851538        -0.376523
 C        -2.101648        -0.149741        -0.108439
 C        -1.803913        -0.855929         1.149820
 C        -0.424047        -1.113195         0.474129
 O         0.361098        -2.335317         0.766878
 C        -1.291912        -1.452978        -0.794107
 O        -1.941525        -2.685964        -0.774128
 H         1.855892         0.981956         0.964819
 H         2.117863        -0.002754        -0.379250
 H         1.684670         1.667219        -0.496141
 H        -1.183500         1.996897        -0.484651
 H        -3.182505         0.151205        -0.306619
 H        -1.826609        -0.314264         2.152300
 H        -2.415246        -1.713732         1.273528
 H         1.193722        -2.094990         1.212868
 H        -0.987700        -1.125820        -1.853720
 H        -1.304558        -3.423817        -0.354352
