19
Iteration:  2753charge 0 multiplicity 1
 C         1.561395         0.684286         0.146509
 C         0.119269         0.166469         0.217711
 C        -1.056747         0.851459        -0.193388
 C        -2.172598        -0.227673        -0.076070
 C        -1.781216        -0.950458         1.147770
 C        -0.451659        -1.190646         0.330934
 O         0.612311        -2.066297         0.675069
 C        -1.364868        -1.377541        -0.893455
 O        -2.152820        -2.634901        -0.824544
 H         2.118736         0.122776         0.909429
 H         2.082411         0.662052        -0.853632
 H         1.531272         1.834806         0.371655
 H        -1.258745         1.744204        -0.732906
 H        -3.213212         0.043735        -0.257499
 H        -1.860785        -0.439014         2.167866
 H        -2.129893        -1.951905         1.349234
 H         0.802451        -2.584906        -0.207804
 H        -1.109578        -1.169309        -2.002807
 H        -1.521144        -3.374890        -0.391738
