19
Iteration:  2379
 C         1.473950         0.710865        -0.040703
 C         0.048360         0.263689         0.071699
 C        -1.078038         0.898532        -0.212704
 C        -2.101840        -0.181871        -0.003940
 C        -1.700013        -0.877164         1.300700
 C        -0.445648        -1.264167         0.467591
 O         0.575116        -2.274306         0.727316
 C        -1.417907        -1.379907        -0.801831
 O        -2.001906        -2.611648        -0.870968
 H         1.474896         1.748876         0.466720
 H         2.106157        -0.053483         0.345983
 H         1.587353         0.867504        -1.122547
 H        -1.350800         1.885192        -0.734151
 H        -3.197603         0.092279        -0.081992
 H        -1.540160        -0.329438         2.288762
 H        -2.446920        -1.755651         1.541649
 H         0.519862        -2.862795        -0.150244
 H        -0.875426        -1.303528        -1.735969
 H        -1.750651        -3.019723        -1.760014
