19
Iteration:  3698charge 0 multiplicity 1
 C         1.493986         0.581002         0.028548
 C         0.143301         0.155161        -0.251203
 C        -0.927111         0.650452        -0.941118
 C        -2.089766        -0.288767        -0.493830
 C        -1.832142        -0.497932         1.048594
 C        -0.459168        -1.025004         0.495876
 O         0.298017        -1.810720         1.329621
 C        -1.212502        -1.711251        -0.687825
 O        -1.937332        -2.870226        -0.361515
 H         2.181393        -0.191344        -0.423324
 H         1.913325         1.587604        -0.273023
 H         1.669011         0.425812         1.104485
 H        -0.941839         1.544394        -1.610457
 H        -3.042513        -0.155575        -0.958571
 H        -1.857408         0.371617         1.632431
 H        -2.474830        -1.341247         1.423574
 H        -0.289072        -1.843967         2.154724
 H        -0.725793        -1.767874        -1.740435
 H        -2.556567        -2.964272        -1.050034
