19
Iteration:  4983
 C         1.541804         0.550226        -0.024244
 C         0.230585        -0.019325        -0.300612
 C        -0.540406         0.069925        -1.499043
 C        -1.749455        -0.783869        -1.097933
 C        -2.035933        -0.114416         0.340974
 C        -0.652030        -0.776159         0.667709
 O        -0.144745        -1.246436         1.834929
 C        -1.157602        -1.948859        -0.324176
 O        -2.058736        -2.773268         0.264547
 H         1.721980         0.984983         0.956833
 H         2.228232        -0.363326        -0.059515
 H         1.872270         1.318289        -0.724711
 H        -0.139356         0.487354        -2.482338
 H        -2.667559        -0.848342        -1.766454
 H        -2.131915         1.018004         0.359546
 H        -2.719814        -0.665657         0.853887
 H         0.418409        -0.479770         2.220464
 H        -0.326732        -2.404904        -0.903476
 H        -1.625286        -3.318320         0.962356
