19
Iteration:  1436
 C         1.578337         0.657343        -0.002177
 C         0.122184         0.225532        -0.137770
 C        -1.002442         0.801596        -0.729791
 C        -2.096678        -0.229029        -0.245597
 C        -1.708796        -0.671737         1.135018
 C        -0.475138        -1.184364         0.426274
 O         0.288213        -2.042503         1.283072
 C        -1.375290        -1.497544        -0.841023
 O        -2.029621        -2.814846        -0.619375
 H         1.519389         1.711248        -0.032727
 H         2.018236         0.410591         1.023707
 H         2.232108         0.312574        -0.746973
 H        -1.081517         1.669473        -1.304006
 H        -3.183553        -0.253758        -0.379331
 H        -1.630574         0.058162         1.887375
 H        -2.378309        -1.500301         1.533441
 H         1.122058        -1.646410         1.144553
 H        -0.893950        -1.632140        -1.816145
 H        -1.340803        -3.501832        -1.055179
