19
Iteration:  2484
 C         1.486411         0.621799         0.224014
 C         0.049475         0.261315         0.083922
 C        -1.139390         0.891401        -0.254112
 C        -2.172514        -0.235029        -0.061247
 C        -1.619071        -0.877545         1.315859
 C        -0.391655        -1.196198         0.356076
 O         0.501615        -2.228184         0.494993
 C        -1.436350        -1.361928        -0.751973
 O        -1.976050        -2.684713        -0.842185
 H         1.877648         1.280041        -0.584891
 H         1.828276         1.195898         1.153596
 H         2.168875        -0.261279         0.111410
 H        -1.317767         2.008351        -0.514878
 H        -3.215162         0.066223        -0.198834
 H        -1.630482        -0.177746         2.090177
 H        -2.012604        -1.859849         1.518234
 H         1.428159        -1.904361         0.497142
 H        -1.178117        -1.132789        -1.834841
 H        -2.642525        -2.729210        -1.517714
