19
Iteration:  3429charge 0 multiplicity 1
 C         1.515552         0.568542        -0.005470
 C         0.070816         0.218699         0.021607
 C        -0.983943         0.727331        -0.656410
 C        -2.069356        -0.291158        -0.426058
 C        -1.871343        -0.664826         1.062121
 C        -0.472993        -1.140683         0.470728
 O         0.521007        -1.897648         1.200895
 C        -1.324823        -1.530981        -0.844934
 O        -2.082903        -2.794171        -0.599893
 H         1.922799         1.058679         0.891237
 H         2.223678        -0.238278        -0.230501
 H         1.782582         1.320754        -0.802365
 H        -1.110160         1.695336        -1.021733
 H        -3.001468        -0.100792        -0.916716
 H        -1.820290         0.135968         1.738369
 H        -2.417805        -1.523486         1.569536
 H         0.373754        -1.884201         2.241755
 H        -0.993070        -1.458378        -1.954118
 H        -1.302148        -3.445054        -0.463969
