19
Iteration:  4756
 C         1.590115         0.559300        -0.076250
 C         0.222716         0.006200        -0.313945
 C        -0.621958         0.218429        -1.442957
 C        -1.820677        -0.654426        -0.945460
 C        -1.965584        -0.215070         0.499831
 C        -0.534586        -0.935086         0.610883
 O        -0.010885        -1.179565         1.973964
 C        -1.158145        -1.988697        -0.392717
 O        -2.233411        -2.838507        -0.018186
 H         2.139562         0.183130         0.857897
 H         2.296836         0.166097        -0.861883
 H         1.655264         1.677987        -0.221432
 H        -0.627719         0.810506        -2.385005
 H        -2.727145        -0.939775        -1.576428
 H        -2.017880         0.898312         0.692596
 H        -2.743611        -0.630747         1.125112
 H         0.904687        -1.082668         2.046504
 H        -0.368961        -2.499280        -1.051550
 H        -2.125686        -3.037570         0.966057
