19
Iteration:  1866charge 0 multiplicity 1
 C         1.472993         0.500373        -0.198474
 C         0.092636         0.193470         0.063230
 C        -1.062085         0.877829        -0.358070
 C        -2.162609        -0.127350        -0.219478
 C        -1.794974        -0.766039         1.169750
 C        -0.497858        -1.115207         0.505441
 O         0.456482        -2.055568         1.063504
 C        -1.350426        -1.408259        -0.850892
 O        -1.761307        -2.813110        -0.708294
 H         1.759882         0.418105        -1.305751
 H         1.666960         1.576235        -0.097623
 H         2.198547        -0.060446         0.392625
 H        -1.038655         1.837814        -0.891251
 H        -3.226099         0.091989        -0.338646
 H        -1.748738        -0.052590         1.990122
 H        -2.585430        -1.490973         1.344886
 H        -0.076315        -2.905999         1.065559
 H        -0.802079        -1.177060        -1.766397
 H        -2.589942        -3.061429        -1.278455
