19
Iteration:  2612charge 0 multiplicity 1
 C         1.458634         0.519220        -0.006410
 C         0.037590         0.279357         0.112624
 C        -1.158824         0.953418        -0.044307
 C        -2.150507        -0.167876         0.010092
 C        -1.680823        -1.059743         1.267254
 C        -0.377996        -1.155713         0.401940
 O         0.586292        -2.086639         0.626041
 C        -1.393178        -1.359258        -0.866765
 O        -1.974576        -2.624434        -0.936350
 H         1.729613         1.444347        -0.453181
 H         2.038988         0.548097         0.910691
 H         1.984601        -0.220549        -0.651615
 H        -1.223657         1.997305        -0.566756
 H        -3.213888         0.020368         0.052866
 H        -1.661707        -0.718405         2.386007
 H        -2.132857        -2.055811         1.278717
 H         0.183692        -2.687468         1.365378
 H        -1.089145        -1.024449        -1.835307
 H        -2.176265        -2.896746        -1.898717
