19
Iteration:  4467
 C         1.577987         0.631124        -0.072231
 C         0.181787         0.147231        -0.343013
 C        -0.707648         0.322008        -1.356001
 C        -1.894636        -0.569942        -0.786266
 C        -1.908395        -0.184143         0.714996
 C        -0.509139        -0.903582         0.631525
 O         0.042970        -1.408681         1.833540
 C        -1.200177        -1.891800        -0.391537
 O        -2.077302        -3.015799        -0.182342
 H         1.699884         1.694939        -0.257277
 H         1.833512         0.229826         0.952646
 H         2.230901         0.198719        -0.904280
 H        -0.674857         0.904089        -2.326507
 H        -2.812827        -0.513705        -1.420633
 H        -1.896634         0.825171         0.971502
 H        -2.668685        -0.889423         1.224136
 H         0.729346        -2.152078         1.715453
 H        -0.429979        -2.238777        -1.193717
 H        -2.907376        -2.737661         0.206650
