19
Iteration:  1941
 C         1.512422         0.709112         0.071121
 C         0.093858         0.220632         0.024247
 C        -0.947026         0.850423        -0.406589
 C        -2.091555        -0.201285        -0.255023
 C        -1.816779        -0.785481         1.172148
 C        -0.459242        -1.158071         0.474592
 O         0.629965        -2.027861         0.771663
 C        -1.386335        -1.591715        -0.766581
 O        -2.161350        -2.763538        -0.616134
 H         2.275221         0.072756         0.507291
 H         1.955393         1.027519        -0.911140
 H         1.540843         1.565135         0.748606
 H        -0.974229         1.817652        -0.867305
 H        -3.101902         0.103164        -0.532105
 H        -1.789177        -0.096290         2.017317
 H        -2.300722        -1.738876         1.253616
 H         0.269249        -2.894132         0.802732
 H        -0.941248        -1.363965        -1.746835
 H        -2.253602        -3.218909        -1.399377
