19
Iteration:  2850charge 0 multiplicity 1
 C         1.500749         0.677348        -0.067839
 C         0.028141         0.289635         0.093697
 C        -1.136542         0.893103        -0.148240
 C        -2.093153        -0.252947        -0.131371
 C        -1.723828        -0.947558         1.238541
 C        -0.399442        -1.236147         0.453306
 O         0.571238        -2.208061         0.920351
 C        -1.290286        -1.444536        -0.823635
 O        -2.123553        -2.600192        -1.072206
 H         1.762778         0.968344        -1.099598
 H         1.655186         1.551697         0.618724
 H         2.217686        -0.104441         0.321477
 H        -1.153289         1.737890        -0.717213
 H        -3.114002        -0.096222        -0.501725
 H        -1.783478        -0.237020         2.124915
 H        -2.346941        -1.762398         1.443021
 H         1.362680        -1.561446         1.009933
 H        -0.796530        -1.306178        -1.854084
 H        -2.557242        -2.877483        -0.174755
