19
Iteration:  1004charge 0 multiplicity 1
 C         1.485186         0.713792         0.144862
 C         0.084462         0.245178        -0.034459
 C        -0.951940         0.813161        -0.609622
 C        -2.124374        -0.210369        -0.201281
 C        -1.693509        -0.654298         1.257049
 C        -0.481090        -1.138196         0.405655
 O         0.371452        -2.213302         0.757788
 C        -1.441220        -1.482277        -0.762050
 O        -1.952746        -2.792163        -0.630529
 H         1.888588         0.815526         1.189173
 H         2.222935         0.137771        -0.311918
 H         1.555543         1.810090        -0.119505
 H        -1.175934         1.657701        -1.238675
 H        -3.151146        -0.183547        -0.586600
 H        -1.479505         0.116860         1.942156
 H        -2.316317        -1.477293         1.672309
 H         0.593772        -2.158750         1.709315
 H        -0.992301        -1.481796        -1.755091
 H        -1.341983        -3.464641        -0.824036
