19
Iteration:   823
 C         1.586502         0.655537         0.014330
 C         0.043056         0.302344         0.049883
 C        -1.052748         0.917559        -0.304486
 C        -2.104312        -0.182960        -0.186165
 C        -1.786242        -0.823408         1.135840
 C        -0.435979        -1.200617         0.329909
 O         0.603483        -2.080240         0.796676
 C        -1.394884        -1.518250        -0.807793
 O        -2.062657        -2.784792        -0.580215
 H         2.226370         0.062138        -0.687527
 H         1.590006         1.747470        -0.418057
 H         1.911911         0.546935         1.035015
 H        -1.190915         1.935856        -0.727598
 H        -3.170619         0.058688        -0.417324
 H        -1.448665        -0.151550         2.035511
 H        -2.373218        -1.727750         1.487806
 H         0.446191        -2.991931         0.520463
 H        -0.943276        -1.426974        -1.810956
 H        -2.918977        -2.880164        -1.129912
