19
Iteration:  1074
 C         1.576981         0.664879        -0.001542
 C         0.086056         0.206780         0.061867
 C        -1.048689         0.777196        -0.484875
 C        -2.132557        -0.240442        -0.271553
 C        -1.719612        -0.763075         1.144363
 C        -0.406233        -1.187251         0.407679
 O         0.532830        -2.012298         1.023575
 C        -1.420170        -1.535984        -0.823175
 O        -2.156956        -2.756535        -0.785821
 H         2.307002        -0.030861         0.267102
 H         1.929660         1.179575        -0.969897
 H         1.819046         1.368327         0.758135
 H        -1.034705         1.738137        -1.010643
 H        -3.155146         0.087545        -0.425626
 H        -1.554222        -0.054141         1.978857
 H        -2.258154        -1.628502         1.416870
 H         0.693310        -1.651631         1.892300
 H        -1.111214        -1.301415        -1.854420
 H        -1.846275        -3.343231        -0.134875
