19
Iteration:  4491charge 0 multiplicity 1
 C         1.586854         0.655603        -0.094284
 C         0.261047        -0.059879        -0.333924
 C        -0.632891         0.250536        -1.268936
 C        -1.960492        -0.498018        -0.820314
 C        -1.945999        -0.205136         0.745109
 C        -0.590200        -0.912921         0.588308
 O        -0.009974        -1.378144         1.833084
 C        -1.279049        -1.886681        -0.583890
 O        -1.976776        -2.933665        -0.100893
 H         1.316081         1.590738         0.384532
 H         2.225011         0.017469         0.555059
 H         2.050774         1.044447        -1.051211
 H        -0.493167         0.755147        -2.233401
 H        -2.863298        -0.315022        -1.378914
 H        -1.947218         0.820949         1.070198
 H        -2.709243        -0.873688         1.161578
 H         0.652837        -2.137572         1.584494
 H        -0.495058        -2.149421        -1.342953
 H        -2.191039        -2.749096         0.903926
