19
Iteration:  1163
 C         1.596416         0.586062        -0.243551
 C         0.097828         0.213465        -0.043327
 C        -1.077619         0.929855        -0.378085
 C        -2.127338        -0.174059        -0.277041
 C        -1.857398        -0.785248         1.114692
 C        -0.450007        -1.161872         0.487671
 O         0.393247        -2.027552         1.145841
 C        -1.229807        -1.508654        -0.769174
 O        -1.929841        -2.773918        -0.568632
 H         1.710959         0.260607        -1.250725
 H         1.551341         1.713651        -0.017278
 H         2.127691        -0.039044         0.422002
 H        -1.023554         1.867437        -0.884519
 H        -3.097075         0.128838        -0.694399
 H        -1.914751        -0.062480         1.919246
 H        -2.354835        -1.766874         1.190433
 H         0.153381        -2.881595         0.720336
 H        -0.841952        -1.351404        -1.787133
 H        -2.105558        -3.101734        -1.401370
