19
Iteration:  4986charge 0 multiplicity 1
 C         1.589456         0.559825        -0.018446
 C         0.210244        -0.002299        -0.320581
 C        -0.535787         0.037737        -1.489208
 C        -1.741099        -0.785883        -1.100584
 C        -2.057197        -0.119175         0.362499
 C        -0.671943        -0.771803         0.650160
 O        -0.144730        -1.254485         1.830989
 C        -1.134412        -1.928111        -0.325731
 O        -2.060034        -2.758161         0.282838
 H         1.740640         0.918146         1.003832
 H         2.200112        -0.296150        -0.149453
 H         1.890943         1.366359        -0.665173
 H        -0.125080         0.426428        -2.437200
 H        -2.624853        -0.930361        -1.705645
 H        -2.124052         0.972886         0.372470
 H        -2.865327        -0.706411         0.811740
 H         0.350956        -0.528004         2.130639
 H        -0.399964        -2.381971        -0.953917
 H        -1.658526        -3.376789         0.835908
