19
Iteration:  3621
 C         1.496023         0.551645        -0.106376
 C         0.085625         0.179349        -0.189042
 C        -0.937191         0.685562        -0.848406
 C        -2.088011        -0.291887        -0.450147
 C        -1.928151        -0.495263         1.049145
 C        -0.431057        -1.047737         0.570158
 O         0.368346        -1.886254         1.453300
 C        -1.209363        -1.588860        -0.703492
 O        -2.012203        -2.802920        -0.526632
 H         1.980021         0.774387         0.863456
 H         2.046028        -0.406621        -0.350797
 H         1.907286         1.267429        -0.787746
 H        -1.172127         1.504603        -1.469619
 H        -2.950615        -0.080145        -1.006048
 H        -1.965430         0.352901         1.706685
 H        -2.574535        -1.272308         1.437723
 H         0.119503        -2.740983         1.243036
 H        -0.517805        -1.608395        -1.631890
 H        -1.390651        -3.534032        -0.550944
