19
Iteration:  3322charge 0 multiplicity 1
 C         1.604446         0.588674         0.007801
 C         0.102633         0.272135        -0.107913
 C        -1.096091         0.782100        -0.525534
 C        -2.107864        -0.311776        -0.311392
 C        -1.912676        -0.753367         1.142094
 C        -0.402577        -1.059714         0.409953
 O         0.512852        -1.961449         1.099083
 C        -1.342895        -1.524792        -0.797077
 O        -1.944686        -2.725550        -0.545784
 H         2.025307         0.044810        -0.850396
 H         1.905645         1.667336         0.045493
 H         2.026105        -0.049021         0.832248
 H        -1.222847         1.685393        -1.111016
 H        -3.142055        -0.148653        -0.674322
 H        -1.930806         0.061670         1.825099
 H        -2.379701        -1.732216         1.369695
 H         0.042190        -2.902109         1.076612
 H        -0.856031        -1.474466        -1.788775
 H        -2.648841        -2.935833        -1.255619
