19
Iteration:  2429charge 0 multiplicity 1
 C         1.504410         0.759256         0.102449
 C         0.110499         0.237389         0.061507
 C        -1.099937         0.912151        -0.112899
 C        -2.144865        -0.188701        -0.080647
 C        -1.637410        -0.939113         1.211670
 C        -0.343709        -1.263675         0.305955
 O         0.653304        -2.171203         0.651777
 C        -1.428123        -1.431159        -0.891421
 O        -2.194538        -2.692648        -0.812949
 H         1.480961         1.811695        -0.012559
 H         1.929542         0.492789         1.124868
 H         2.120654         0.222318        -0.642328
 H        -1.176939         1.987893        -0.157360
 H        -3.187284         0.054130        -0.198360
 H        -1.416110        -0.333943         2.073186
 H        -2.214452        -1.821245         1.458252
 H         0.420230        -2.423555         1.515142
 H        -1.270454        -1.213398        -1.984197
 H        -2.511574        -2.859394        -1.645429
