19
Iteration:  1963charge 0 multiplicity 1
 C         1.587400         0.807539         0.169376
 C         0.090133         0.233729        -0.061894
 C        -1.089841         0.737337        -0.465462
 C        -2.112349        -0.307100        -0.269784
 C        -1.722838        -0.893216         1.209818
 C        -0.320312        -1.202514         0.357275
 O         0.611926        -2.074978         0.847405
 C        -1.379073        -1.478343        -0.858269
 O        -2.243642        -2.600271        -0.560699
 H         2.190237         0.234659         0.911739
 H         2.187144         0.639020        -0.769041
 H         1.639926         1.832203         0.535841
 H        -1.288106         1.704350        -0.854484
 H        -3.150193        -0.119721        -0.468789
 H        -1.520054        -0.109909         1.934605
 H        -2.356675        -1.723636         1.415225
 H         0.076074        -2.831330         1.290683
 H        -1.075323        -1.317925        -1.944591
 H        -2.191537        -3.135399        -1.485900
