19
Iteration:   889charge 0 multiplicity 1
 C         1.490899         0.577656        -0.154557
 C         0.056500         0.243933         0.004073
 C        -1.078582         0.858326        -0.369329
 C        -2.146801        -0.201628        -0.069349
 C        -1.626685        -0.736101         1.267782
 C        -0.420749        -1.099864         0.440749
 O         0.376086        -2.084802         1.003187
 C        -1.388078        -1.452177        -0.791622
 O        -1.858183        -2.805036        -0.828268
 H         1.668436         1.085197        -1.055868
 H         1.676109         1.095747         0.850421
 H         2.065290        -0.345032        -0.169497
 H        -1.276085         1.785427        -0.859181
 H        -3.161903        -0.000900        -0.469523
 H        -1.627166         0.057620         2.121521
 H        -2.232124        -1.589406         1.612244
 H        -0.126397        -2.897246         0.867710
 H        -0.928261        -1.182261        -1.745601
 H        -1.935952        -2.918574        -1.752019
