19
Iteration:   969charge 0 multiplicity 1
 C         1.522929         0.654936         0.077472
 C         0.058936         0.208454        -0.088474
 C        -1.054484         0.856861        -0.394321
 C        -2.113756        -0.318870        -0.232549
 C        -1.696429        -0.812694         1.132701
 C        -0.413169        -1.158753         0.393292
 O         0.636147        -2.017996         0.991026
 C        -1.351032        -1.535023        -0.857133
 O        -2.222837        -2.662826        -0.710782
 H         1.518486         1.325903         0.987945
 H         2.124044        -0.164527         0.268765
 H         1.846373         1.006653        -0.927322
 H        -1.156484         1.741251        -1.028902
 H        -3.110746        -0.127362        -0.582311
 H        -1.619516        -0.042608         1.908515
 H        -2.295206        -1.717316         1.418988
 H         0.290711        -2.028691         1.911561
 H        -0.945524        -1.281077        -1.838927
 H        -1.662261        -3.421432        -0.853792
