19
Iteration:  3824
 C         1.617010         0.580579        -0.100158
 C         0.189349         0.111841        -0.170139
 C        -0.888880         0.526771        -0.951857
 C        -2.058245        -0.332064        -0.514181
 C        -1.937785        -0.325817         0.941585
 C        -0.501986        -0.984204         0.577581
 O         0.108982        -1.788767         1.538004
 C        -1.278098        -1.700406        -0.678146
 O        -1.901123        -2.936880        -0.472766
 H         1.876088         0.808931         0.928922
 H         2.373808        -0.106678        -0.407904
 H         1.640050         1.523505        -0.708734
 H        -0.955215         1.124019        -1.890763
 H        -3.020244        -0.106895        -0.984195
 H        -1.698232         0.693972         1.470718
 H        -2.716571        -0.858971         1.430087
 H         0.999367        -1.854035         1.172592
 H        -0.736774        -1.808607        -1.583384
 H        -1.755839        -3.195915         0.414598
