19
Iteration:  1364
 C         1.546128         0.495939        -0.135132
 C         0.071031         0.230706         0.031094
 C        -0.993106         0.775467        -0.586594
 C        -2.124451        -0.291094        -0.334494
 C        -1.862709        -0.644191         1.097005
 C        -0.474737        -1.046755         0.571641
 O         0.439525        -1.906165         1.206546
 C        -1.303309        -1.541728        -0.795455
 O        -1.891114        -2.817552        -0.744108
 H         1.649301         1.652402         0.051039
 H         2.103741         0.029930         0.654166
 H         1.899439         0.260169        -1.201309
 H        -1.014481         1.700234        -1.075882
 H        -3.128254         0.023675        -0.599323
 H        -1.954340         0.001548         2.003338
 H        -2.548151        -1.454942         1.498190
 H         0.272505        -2.764204         0.868674
 H        -0.875969        -1.472990        -1.792334
 H        -2.436544        -2.998325         0.145659
