19
Iteration:  1224
 C         1.527128         0.669412         0.131052
 C         0.143328         0.194267        -0.186614
 C        -0.982474         0.799444        -0.724324
 C        -2.146060        -0.238345        -0.222675
 C        -1.677179        -0.651190         1.203370
 C        -0.473275        -1.159111         0.448710
 O         0.492675        -1.987718         1.060611
 C        -1.467329        -1.584306        -0.699347
 O        -2.031899        -2.865289        -0.743241
 H         2.120185         1.008701        -0.756905
 H         1.514050         1.580223         0.667170
 H         2.167019        -0.020905         0.707029
 H        -1.131387         1.890087        -0.893152
 H        -3.142226         0.077448        -0.561880
 H        -1.741871         0.224393         1.884950
 H        -2.281054        -1.385653         1.710789
 H         0.865234        -2.733107         0.623525
 H        -1.122106        -1.351594        -1.720208
 H        -2.667563        -2.877396        -0.023093
