19
Iteration:   730
 C         1.476427         0.710126        -0.051666
 C         0.125389         0.272783         0.027210
 C        -1.125617         0.920476        -0.245088
 C        -2.139161        -0.230071        -0.095522
 C        -1.675712        -0.906641         1.246017
 C        -0.410584        -1.238895         0.323967
 O         0.518245        -2.187437         0.700306
 C        -1.351784        -1.453761        -0.817236
 O        -2.104801        -2.631378        -0.751935
 H         2.134866         0.163312         0.767107
 H         2.064706         0.410883        -0.982965
 H         1.722458         1.808110         0.180995
 H        -1.364730         1.959424        -0.617826
 H        -3.175544         0.041927        -0.367845
 H        -1.311215        -0.368395         2.104027
 H        -2.257500        -1.783013         1.581300
 H         0.430083        -2.286626         1.655388
 H        -1.012594        -1.419060        -1.891576
 H        -1.598846        -3.179578        -0.146532
