19
Iteration:   397
 C         1.461297         0.612768        -0.113671
 C        -0.012591         0.272484         0.135018
 C        -1.121511         0.883992        -0.086756
 C        -2.149019        -0.261546        -0.045059
 C        -1.671081        -0.884990         1.313709
 C        -0.393716        -1.193018         0.404287
 O         0.546385        -2.237175         0.641182
 C        -1.384125        -1.337375        -0.864663
 O        -2.016088        -2.574785        -0.917597
 H         2.208743        -0.234279         0.242922
 H         1.668589         0.640709        -1.196956
 H         1.916890         1.483752         0.344855
 H        -1.433478         1.930441        -0.382219
 H        -3.199071         0.036182        -0.233652
 H        -1.539711        -0.195604         2.100005
 H        -2.086959        -1.790767         1.752351
 H         0.403027        -2.536980         1.590655
 H        -0.885701        -1.079157        -1.829528
 H        -1.253313        -3.234164        -0.770659
