19
Iteration:  3943charge 0 multiplicity 1
 C         1.626829         0.685474        -0.046587
 C         0.189919         0.141850        -0.261309
 C        -0.830268         0.499009        -1.071277
 C        -2.014586        -0.370984        -0.650317
 C        -1.856465        -0.286316         0.886683
 C        -0.505226        -0.971371         0.603107
 O         0.086559        -1.771334         1.599085
 C        -1.334871        -1.799699        -0.698013
 O        -2.017109        -2.960236        -0.291248
 H         1.983937         1.157738        -0.960275
 H         1.748660         1.424551         0.753845
 H         2.390643        -0.126661         0.243031
 H        -0.946034         1.240466        -1.891718
 H        -2.986518        -0.116745        -1.029552
 H        -1.769886         0.720583         1.397346
 H        -2.603819        -0.836018         1.349686
 H         0.939430        -2.067074         1.400937
 H        -0.691918        -1.979322        -1.656710
 H        -1.457401        -3.357552         0.464544
