19
Iteration:   592charge 0 multiplicity 1
 C         1.476290         0.765795         0.052478
 C         0.078555         0.208088         0.178154
 C        -1.024732         0.868753        -0.327410
 C        -2.065058        -0.263402        -0.191839
 C        -1.721418        -0.925937         1.230819
 C        -0.383496        -1.289436         0.373348
 O         0.699978        -2.078077         0.757373
 C        -1.424401        -1.460206        -0.875986
 O        -2.248992        -2.621611        -0.721257
 H         1.510584         1.863842         0.264092
 H         2.260658         0.280886         0.729115
 H         1.925337         0.751041        -0.965936
 H        -1.109801         1.765016        -0.815824
 H        -3.059534         0.094417        -0.339871
 H        -1.527112        -0.159626         2.010830
 H        -2.456526        -1.804080         1.487432
 H         0.319082        -2.825814         1.338538
 H        -1.056187        -1.295996        -1.914671
 H        -2.209050        -3.183615        -1.522678
