19
Iteration:  4220charge 0 multiplicity 1
 C         1.556329         0.640532        -0.088088
 C         0.163647         0.080980        -0.284831
 C        -0.836243         0.511509        -1.073997
 C        -1.918535        -0.511733        -0.817072
 C        -1.946150        -0.260755         0.721533
 C        -0.446159        -0.988174         0.613000
 O         0.185854        -1.686405         1.666516
 C        -1.117169        -1.872790        -0.613633
 O        -2.138710        -2.819213        -0.086299
 H         1.903266         1.457575        -0.825493
 H         1.586236         1.238245         0.856548
 H         2.319486        -0.148838        -0.031190
 H        -0.781211         1.133659        -1.964241
 H        -2.834095        -0.414541        -1.452438
 H        -1.910970         0.805609         0.997942
 H        -2.738451        -0.813793         1.316362
 H        -0.134821        -1.346431         2.445295
 H        -0.416726        -2.285200        -1.357896
 H        -2.181046        -3.597254        -0.598513
