19
Iteration:  4886charge 0 multiplicity 1
 C         1.656880         0.320426        -0.194538
 C         0.204136         0.056026        -0.290390
 C        -0.635790         0.170532        -1.303878
 C        -1.805270        -0.688305        -0.966334
 C        -2.099169        -0.142573         0.410748
 C        -0.651181        -0.788006         0.641357
 O        -0.063564        -0.992502         1.910013
 C        -1.065303        -1.968267        -0.389711
 O        -1.966181        -2.924318         0.171406
 H         2.116997         0.795805        -1.042622
 H         1.726088         1.004352         0.659829
 H         2.172867        -0.596149         0.027930
 H        -0.499525         0.645670        -2.210545
 H        -2.563218        -0.743568        -1.802896
 H        -2.317395         1.020902         0.525969
 H        -2.857682        -0.841044         0.840114
 H        -0.541779        -1.784292         2.325830
 H        -0.256678        -2.300838        -0.990505
 H        -2.718071        -2.894868        -0.352683
