19
Iteration:  1927charge 0 multiplicity 1
 C         1.468235         0.616886         0.062634
 C         0.085909         0.159568         0.061291
 C        -1.024002         0.859250        -0.437436
 C        -2.084798        -0.119252        -0.273641
 C        -1.768737        -0.732284         1.225593
 C        -0.449009        -1.198999         0.439328
 O         0.581991        -2.027220         0.823261
 C        -1.383371        -1.436653        -0.777545
 O        -2.038406        -2.842398        -0.628329
 H         2.094792        -0.237490         0.143167
 H         1.520301         1.137599        -0.997992
 H         1.720028         1.441704         0.785773
 H        -1.108966         1.922882        -0.775538
 H        -3.153109         0.082060        -0.560885
 H        -1.576746         0.003280         2.102792
 H        -2.653191        -1.345069         1.578907
 H         0.289023        -2.990253         0.581301
 H        -0.886547        -1.612560        -1.779260
 H        -2.027526        -3.136479        -1.667796
