19
Iteration:  2440
 C         1.400066         0.658090         0.178758
 C         0.052255         0.208967         0.015554
 C        -1.032357         0.900105        -0.198835
 C        -2.132363        -0.184291        -0.049814
 C        -1.579593        -0.912734         1.275773
 C        -0.409166        -1.147523         0.289844
 O         0.669401        -2.185168         0.602220
 C        -1.491072        -1.426057        -0.794685
 O        -2.139650        -2.685502        -0.854861
 H         1.518763         1.649672        -0.198868
 H         1.849443         0.690766         1.231141
 H         2.112017         0.069376        -0.427576
 H        -1.204212         1.967816        -0.297030
 H        -3.161883        -0.086730        -0.327568
 H        -1.264707        -0.510058         2.201102
 H        -2.222283        -1.752582         1.332929
 H         0.828082        -2.220937         1.618111
 H        -1.058759        -1.204512        -1.837334
 H        -2.524363        -2.701307        -1.741453
