19
Iteration:  3501
 C         1.491953         0.711505         0.053320
 C         0.183568         0.166573        -0.186858
 C        -0.895931         0.731024        -0.687818
 C        -2.048831        -0.218121        -0.425767
 C        -1.852367        -0.556256         1.057662
 C        -0.533152        -1.125770         0.467591
 O         0.262892        -2.030964         1.182513
 C        -1.296201        -1.594516        -0.798291
 O        -1.907171        -2.944937        -0.438450
 H         2.399976         0.246893        -0.350282
 H         1.476451         1.721510        -0.445329
 H         1.778434         0.980157         1.060356
 H        -0.991583         1.668594        -1.269104
 H        -3.046075        -0.033318        -0.790556
 H        -1.829349         0.266615         1.817004
 H        -2.629187        -1.263450         1.311619
 H         0.975297        -1.563460         1.791083
 H        -0.624957        -1.603639        -1.631532
 H        -2.749451        -3.061122        -1.023570
