19
Iteration:  3041
 C         1.548552         0.632601         0.136824
 C         0.096468         0.135224        -0.044140
 C        -1.067491         0.707786        -0.516029
 C        -2.119018        -0.302294        -0.097104
 C        -1.704298        -0.828662         1.229983
 C        -0.453495        -1.186801         0.410360
 O         0.679864        -1.889578         0.991880
 C        -1.426955        -1.453637        -0.889317
 O        -2.209788        -2.604871        -0.841142
 H         2.221976        -0.217400        -0.080335
 H         1.629092         1.562215        -0.496115
 H         1.572277         0.966392         1.185145
 H        -1.240507         1.617058        -0.974190
 H        -3.164089        -0.172556        -0.177764
 H        -1.509304        -0.179876         2.021157
 H        -2.274463        -1.735829         1.522687
 H         0.295847        -2.743159         1.034966
 H        -0.935157        -1.170477        -1.884208
 H        -1.562707        -3.321586        -1.209456
