19
Iteration:  1631charge 0 multiplicity 1
 C         1.565717         0.487788        -0.189122
 C         0.076722         0.222438         0.066639
 C        -1.025063         0.810747        -0.354945
 C        -2.079595        -0.244785        -0.361953
 C        -1.824076        -0.792173         1.099998
 C        -0.419161        -1.153216         0.484055
 O         0.449460        -1.895564         1.254213
 C        -1.239848        -1.549175        -0.812922
 O        -2.157443        -2.712075        -0.776074
 H         2.107119        -0.362024         0.047567
 H         1.762604         0.560349        -1.336193
 H         1.871724         1.448392         0.270734
 H        -1.180600         1.826882        -0.855330
 H        -3.082171        -0.180673        -0.816155
 H        -1.920405         0.010947         1.800199
 H        -2.407683        -1.717516         1.314560
 H         0.883759        -1.274268         1.817714
 H        -0.793025        -1.370914        -1.789450
 H        -1.537980        -3.462094        -1.147853
