19
Iteration:   954charge 0 multiplicity 1
 C         1.497593         0.637494         0.008760
 C         0.085595         0.291707         0.094941
 C        -1.117582         0.777278        -0.486796
 C        -2.071082        -0.287713        -0.332969
 C        -1.699615        -0.928068         1.217866
 C        -0.366624        -1.215705         0.438448
 O         0.635184        -1.920408         1.012532
 C        -1.331891        -1.523027        -0.861253
 O        -2.280409        -2.577565        -0.771943
 H         1.899281         1.510005         0.455574
 H         2.146978        -0.281261         0.435514
 H         1.971769         0.833259        -0.957640
 H        -1.343713         1.793893        -0.855025
 H        -3.158783        -0.255659        -0.580672
 H        -1.539496        -0.121052         2.033208
 H        -2.266701        -1.792085         1.553361
 H         0.446280        -2.366424         1.906104
 H        -0.845538        -1.682353        -1.834024
 H        -1.908204        -3.546589        -0.834499
