19
Iteration:  2736
 C         1.488897         0.720889         0.210151
 C         0.096054         0.253240         0.112125
 C        -1.083346         0.889944        -0.184491
 C        -2.096978        -0.228670        -0.169698
 C        -1.707859        -0.999388         1.219015
 C        -0.362170        -1.196421         0.381196
 O         0.695928        -2.116828         0.697154
 C        -1.458836        -1.458288        -0.852552
 O        -2.275437        -2.629641        -0.898733
 H         1.989787         0.513867         1.167537
 H         2.097635         0.175542        -0.521580
 H         1.695080         1.733328        -0.030570
 H        -1.176072         1.966863        -0.398284
 H        -3.146644         0.089868        -0.360549
 H        -1.638489        -0.361650         2.060180
 H        -2.492028        -1.813383         1.365351
 H         1.237779        -2.312939        -0.163195
 H        -1.068844        -1.294422        -1.834128
 H        -1.701999        -3.393694        -0.531753
