19
Iteration:  3813
 C         1.626520         0.671202        -0.108211
 C         0.181283         0.112117        -0.202037
 C        -0.815608         0.510420        -0.940863
 C        -2.068834        -0.325861        -0.593384
 C        -1.933398        -0.306753         1.029879
 C        -0.544016        -1.040491         0.573758
 O         0.119697        -1.781326         1.511373
 C        -1.320836        -1.703823        -0.647942
 O        -1.919428        -2.974421        -0.474012
 H         1.793797         1.229112         0.802222
 H         2.305537        -0.143232        -0.165945
 H         1.953228         1.323759        -0.971163
 H        -0.701615         1.431375        -1.502281
 H        -2.994442        -0.190251        -1.178589
 H        -1.954675         0.788757         1.470967
 H        -2.540030        -0.981391         1.587712
 H         0.996458        -2.282950         1.252357
 H        -0.716225        -1.718088        -1.517364
 H        -1.821440        -3.237943         0.428861
