19
Iteration:  1743
 C         1.479565         0.708285         0.216700
 C         0.105473         0.250568         0.035779
 C        -1.017649         0.742804        -0.644404
 C        -2.094449        -0.274267        -0.350103
 C        -1.733808        -0.684286         1.159083
 C        -0.445869        -1.164643         0.400429
 O         0.526570        -2.144827         0.727531
 C        -1.400517        -1.542839        -0.736580
 O        -2.088854        -2.655892        -0.550718
 H         1.718760         1.622558         0.646677
 H         2.056965         0.008007         0.937541
 H         2.002058         0.641756        -0.738540
 H        -1.176734         1.643371        -1.247244
 H        -3.100586         0.068400        -0.680017
 H        -1.639366         0.049788         1.970251
 H        -2.425836        -1.427692         1.477249
 H         0.322565        -2.244638         1.686388
 H        -0.842048        -1.552652        -1.691226
 H        -1.595365        -3.291659        -0.049564
