19
Iteration:  1606charge 0 multiplicity 1
 C         1.527197         0.495763        -0.220079
 C         0.073698         0.227371         0.031277
 C        -0.996941         0.916099        -0.351715
 C        -2.067372        -0.179039        -0.345060
 C        -1.892738        -0.780848         1.069641
 C        -0.442330        -1.122035         0.513932
 O         0.411936        -1.964290         1.202733
 C        -1.229459        -1.582620        -0.868360
 O        -2.041142        -2.764022        -0.660069
 H         1.964275        -0.459708        -0.568688
 H         1.591677         1.062504        -1.117496
 H         2.045070         1.089378         0.565141
 H        -1.133826         1.847564        -0.849211
 H        -3.012461         0.005018        -0.886702
 H        -1.766166        -0.091415         2.005727
 H        -2.595007        -1.604355         1.162297
 H         0.515146        -1.698955         2.164679
 H        -0.667896        -1.513410        -1.863087
 H        -1.503158        -3.542657        -1.114302
