19
Iteration:  1691charge 0 multiplicity 1
 C         1.535809         0.712339         0.030963
 C         0.087318         0.180617        -0.023201
 C        -0.964785         0.815179        -0.523973
 C        -2.121335        -0.254830        -0.311158
 C        -1.718666        -0.595890         1.201677
 C        -0.397807        -1.142629         0.498232
 O         0.359541        -2.163685         0.995107
 C        -1.338504        -1.524772        -0.829189
 O        -2.114646        -2.849307        -0.711140
 H         1.809315         1.088031         1.118685
 H         2.310201         0.017917        -0.264722
 H         1.648449         1.647316        -0.541101
 H        -1.036808         1.873130        -0.804156
 H        -3.157179         0.003061        -0.656740
 H        -1.748642         0.419792         1.727777
 H        -2.344332        -1.283160         1.748976
 H         1.038458        -1.711871         1.479319
 H        -0.883510        -1.493642        -1.852465
 H        -1.510375        -3.513590        -0.897485
