19
Iteration:  2257charge 0 multiplicity 1
 C         1.438900         0.765100         0.089386
 C         0.108038         0.214488        -0.040288
 C        -1.056584         0.859757        -0.307075
 C        -2.114493        -0.281648        -0.088020
 C        -1.596793        -0.926694         1.263311
 C        -0.417290        -1.223785         0.327131
 O         0.581870        -2.152412         0.769885
 C        -1.405534        -1.346664        -0.828465
 O        -2.077278        -2.650597        -0.763668
 H         1.977453         0.046866         0.772505
 H         1.940680         0.748349        -0.927603
 H         1.376480         1.764879         0.547661
 H        -1.349231         1.851665        -0.430211
 H        -3.119526        -0.005188        -0.310306
 H        -1.395873        -0.363384         2.228290
 H        -2.163204        -1.913111         1.540316
 H         0.077984        -2.965619         1.051218
 H        -1.136557        -1.077625        -1.848837
 H        -2.705985        -2.830316        -1.596382
