19
Iteration:   565
 C         1.489281         0.690520         0.173311
 C         0.107617         0.197985        -0.138647
 C        -1.127446         0.872522        -0.386302
 C        -2.127221        -0.261926        -0.100578
 C        -1.642078        -0.816918         1.271044
 C        -0.385286        -1.160347         0.378453
 O         0.502368        -2.161781         0.705727
 C        -1.397032        -1.426364        -0.768580
 O        -2.035045        -2.678055        -0.681821
 H         1.646747         1.769873         0.189776
 H         1.754992         0.384887         1.171901
 H         2.367798         0.434421        -0.439162
 H        -1.315870         1.975079        -0.598032
 H        -3.194397         0.014104        -0.233681
 H        -1.510835        -0.158754         2.148692
 H        -2.199089        -1.697013         1.542725
 H         0.149942        -2.950751         0.174490
 H        -1.075955        -1.215875        -1.787351
 H        -2.071845        -3.130997        -1.575100
