19
Iteration:  2768
 C         1.499941         0.667583         0.133301
 C         0.070331         0.285115         0.100752
 C        -1.075857         0.872373        -0.231038
 C        -2.140266        -0.212287        -0.146347
 C        -1.718652        -1.026471         1.269269
 C        -0.432294        -1.192569         0.383122
 O         0.504313        -2.157377         0.679687
 C        -1.419217        -1.352456        -0.852025
 O        -2.002552        -2.601472        -0.832589
 H         2.135925        -0.134949         0.507768
 H         1.730484         0.807368        -0.928441
 H         1.657371         1.545312         0.681119
 H        -1.126225         1.951981        -0.474815
 H        -3.181622         0.042021        -0.455054
 H        -1.513599        -0.399729         2.111721
 H        -2.469789        -1.873592         1.447040
 H         0.658400        -2.769478        -0.041275
 H        -0.913569        -1.121145        -1.750031
 H        -1.377584        -3.262688        -0.418059
