19
Iteration:  3132
 C         1.497848         0.642497        -0.010166
 C         0.115659         0.270445        -0.019799
 C        -1.047503         0.822791        -0.412422
 C        -2.165871        -0.120350        -0.178402
 C        -1.769780        -0.719842         1.214108
 C        -0.464958        -1.099063         0.440534
 O         0.351656        -2.074515         0.929687
 C        -1.324880        -1.526163        -0.804047
 O        -1.792577        -2.902341        -0.702784
 H         1.650867         1.515883        -0.770891
 H         1.905371         0.827066         1.019536
 H         2.208147        -0.134522        -0.394348
 H        -1.074756         1.778998        -0.945098
 H        -3.204919         0.274831        -0.374488
 H        -1.672768         0.009152         2.083508
 H        -2.362776        -1.579866         1.361716
 H        -0.079899        -2.887615         0.780767
 H        -0.818410        -1.256030        -1.785456
 H        -2.534498        -3.031382        -1.233153
