19
Iteration:  4541charge 0 multiplicity 1
 C         1.661268         0.487303        -0.047365
 C         0.183486         0.200373        -0.321108
 C        -0.719674         0.354845        -1.315828
 C        -1.880774        -0.564941        -0.898620
 C        -2.064595        -0.220541         0.612314
 C        -0.578495        -0.838267         0.553323
 O        -0.081562        -1.567289         1.692734
 C        -1.123715        -1.824416        -0.471544
 O        -1.985735        -2.849854         0.137188
 H         1.931880         0.053602         0.937164
 H         2.251030        -0.002720        -0.813261
 H         1.797190         1.552312         0.151449
 H        -0.674398         0.824859        -2.352160
 H        -2.718788        -0.878743        -1.606662
 H        -2.163537         0.855461         0.702380
 H        -2.884151        -0.796156         1.212854
 H         0.823351        -1.476035         1.739693
 H        -0.499156        -2.248526        -1.262361
 H        -1.494733        -3.197272         0.833511
