19
Iteration:  2992
 C         1.552780         0.757567         0.068034
 C         0.079737         0.263401         0.117096
 C        -1.052787         0.810505        -0.308131
 C        -2.143344        -0.228528        -0.255510
 C        -1.765442        -0.863493         1.179177
 C        -0.423223        -1.228796         0.408540
 O         0.519213        -2.177432         0.803844
 C        -1.362757        -1.491563        -0.896523
 O        -2.078464        -2.665937        -0.715859
 H         2.163017         0.164438         0.746942
 H         1.846068         0.575723        -0.928655
 H         1.591148         1.814241         0.255565
 H        -1.161089         1.860866        -0.799687
 H        -3.182297         0.101905        -0.598897
 H        -1.505769        -0.001519         1.908521
 H        -2.401361        -1.622078         1.600747
 H         0.703985        -1.885002         1.770099
 H        -1.074106        -1.227163        -1.927289
 H        -1.614584        -3.390193        -1.067728
