19
Iteration:  1369
 C         1.477448         0.506965        -0.136720
 C         0.117596         0.221791         0.061205
 C        -0.966056         0.803094        -0.574227
 C        -2.126000        -0.267406        -0.331547
 C        -1.905867        -0.642321         1.093686
 C        -0.450795        -1.032866         0.557347
 O         0.474943        -1.921593         1.207976
 C        -1.285873        -1.539140        -0.756403
 O        -1.943972        -2.841319        -0.745749
 H         1.609865         1.524732        -0.017369
 H         2.189455        -0.061462         0.524719
 H         1.722308         0.244891        -1.136327
 H        -0.994538         1.753476        -1.224104
 H        -3.157359        -0.158416        -0.771079
 H        -2.122399         0.119901         1.877825
 H        -2.560583        -1.476025         1.293790
 H         0.455461        -2.863321         0.814928
 H        -0.736987        -1.359821        -1.712017
 H        -2.180264        -2.979548         0.127359
