19
Iteration:  1849
 C         1.475134         0.590744        -0.252160
 C         0.119237         0.155833         0.141964
 C        -1.014686         0.856563        -0.253166
 C        -2.114221        -0.215049        -0.306080
 C        -1.983341        -0.662172         1.186134
 C        -0.455154        -1.232886         0.485248
 O         0.530899        -1.987613         1.043469
 C        -1.312031        -1.487914        -0.782184
 O        -1.899492        -2.774726        -0.713079
 H         1.577260         0.632481        -1.348741
 H         1.787547         1.550283         0.203711
 H         2.285570        -0.097269         0.097909
 H        -0.983615         1.777630        -0.840380
 H        -2.965014         0.133573        -0.908946
 H        -1.882428         0.182848         1.883703
 H        -2.388162        -1.666855         1.520810
 H         0.314377        -2.944163         1.022652
 H        -0.960283        -1.459363        -1.850283
 H        -2.420589        -2.837657        -1.561275
