19
Iteration:   566
 C         1.486185         0.693577         0.171727
 C         0.117336         0.190698        -0.130086
 C        -1.132046         0.863010        -0.384355
 C        -2.128601        -0.259987        -0.102440
 C        -1.639897        -0.816371         1.263018
 C        -0.386665        -1.159544         0.385748
 O         0.506377        -2.155545         0.705236
 C        -1.393373        -1.432334        -0.771083
 O        -2.043218        -2.671939        -0.683060
 H         1.622419         1.772602         0.181983
 H         1.768360         0.356656         1.182217
 H         2.359869         0.447601        -0.478222
 H        -1.294234         1.985331        -0.592577
 H        -3.205566         0.005736        -0.252796
 H        -1.494779        -0.147403         2.161099
 H        -2.195970        -1.743435         1.515305
 H         0.145873        -2.929250         0.200554
 H        -1.084569        -1.222443        -1.787349
 H        -2.064644        -3.100773        -1.554114
