19
Iteration:  1494
 C         1.506058         0.711583         0.137084
 C         0.096163         0.306206        -0.006993
 C        -1.003471         0.698884        -0.727371
 C        -2.056438        -0.294595        -0.439110
 C        -1.810035        -0.701412         1.114514
 C        -0.400555        -1.157696         0.442827
 O         0.565896        -2.099765         0.962302
 C        -1.298355        -1.565068        -0.806970
 O        -2.249259        -2.662014        -0.465191
 H         1.896215         1.300988        -0.770962
 H         1.625170         1.345422         1.004607
 H         2.087932        -0.183853         0.384793
 H        -1.149667         1.674557        -1.308014
 H        -3.061152        -0.128184        -0.816778
 H        -1.765780         0.166625         1.844328
 H        -2.432401        -1.607249         1.382659
 H         0.609811        -2.077186         1.980659
 H        -0.526759        -1.738627        -1.610133
 H        -1.716680        -3.403882        -0.491578
