19
Iteration:  4964charge 0 multiplicity 1
 C         1.576076         0.530074        -0.035013
 C         0.273898        -0.046568        -0.370925
 C        -0.584260         0.076563        -1.472872
 C        -1.774544        -0.621933        -1.073405
 C        -2.023392        -0.087001         0.384377
 C        -0.628925        -0.849559         0.574776
 O        -0.141643        -1.184517         1.931227
 C        -1.094539        -1.970196        -0.348689
 O        -2.087627        -2.951170         0.225199
 H         1.287880         1.394924         0.586676
 H         2.229294        -0.150458         0.449793
 H         2.021727         0.983399        -0.907487
 H        -0.334978         0.771898        -2.349444
 H        -2.590171        -0.832915        -1.771121
 H        -1.792776         1.003694         0.397685
 H        -2.967873        -0.478048         0.832608
 H         0.332446        -0.319022         2.254523
 H        -0.404324        -2.493017        -0.991497
 H        -2.020851        -2.952879         1.255216
