19
Iteration:   268
 C         1.509913         0.771025         0.117925
 C         0.128592         0.240582         0.094039
 C        -1.085823         0.887896        -0.135526
 C        -2.081339        -0.272903        -0.073331
 C        -1.630175        -1.078991         1.193229
 C        -0.351255        -1.211469         0.371003
 O         0.759651        -2.082563         0.588117
 C        -1.470855        -1.456353        -0.876976
 O        -2.345640        -2.574726        -0.764700
 H         1.530068         1.834912         0.493604
 H         2.126382         0.302239         0.840084
 H         2.028376         0.738894        -0.815677
 H        -1.230731         1.814966        -0.620199
 H        -3.156393        -0.041625        -0.198415
 H        -1.674998        -0.495416         2.084930
 H        -2.199349        -2.023517         1.224871
 H         0.390810        -2.733874         1.160496
 H        -1.240773        -1.279342        -1.913352
 H        -2.381856        -3.019771        -1.597615
