19
Iteration:  3538charge 0 multiplicity 1
 C         1.574093         0.694697         0.044829
 C         0.064559         0.205438        -0.056825
 C        -0.995534         0.698308        -0.748392
 C        -2.004029        -0.381898        -0.501277
 C        -1.852892        -0.554869         1.054585
 C        -0.447993        -1.098831         0.528455
 O         0.310207        -2.016969         1.182550
 C        -1.208967        -1.616960        -0.794923
 O        -1.990808        -2.775530        -0.428606
 H         1.789918         1.044012        -0.969441
 H         1.551967         1.528008         0.724397
 H         2.160634        -0.151152         0.450946
 H        -1.047236         1.296133        -1.675781
 H        -3.023473        -0.084216        -0.816023
 H        -1.780650         0.334321         1.650691
 H        -2.725190        -1.271379         1.338189
 H         0.741794        -1.451545         1.937065
 H        -0.683788        -1.802456        -1.704996
 H        -2.603530        -2.985621        -1.177648
