19
Iteration:  3827charge 0 multiplicity 1
 C         1.608527         0.556516        -0.093903
 C         0.160057         0.120865        -0.178317
 C        -0.875337         0.550038        -0.952999
 C        -2.066293        -0.323149        -0.527377
 C        -1.904008        -0.336221         0.924599
 C        -0.514911        -0.972161         0.584411
 O         0.117544        -1.797436         1.554598
 C        -1.250124        -1.699357        -0.682198
 O        -1.901972        -2.924942        -0.471747
 H         1.843374         0.683986         0.988670
 H         2.358036        -0.130537        -0.574361
 H         1.544420         1.478032        -0.592226
 H        -1.095176         1.021187        -1.983522
 H        -3.016111        -0.105010        -0.914119
 H        -1.725726         0.608335         1.463015
 H        -2.736927        -0.882273         1.442045
 H         0.989773        -1.748246         1.196694
 H        -0.743865        -1.807465        -1.614205
 H        -1.730936        -3.186877         0.513428
