19
Iteration:  2337charge 0 multiplicity 1
 C         1.533039         0.523667        -0.075522
 C        -0.007903         0.280608         0.044467
 C        -1.180541         0.921970        -0.206941
 C        -2.144447        -0.201667         0.052909
 C        -1.603785        -0.930221         1.318815
 C        -0.435545        -1.130357         0.424726
 O         0.512207        -2.110311         0.826980
 C        -1.440256        -1.367843        -0.813981
 O        -1.881212        -2.683113        -0.970673
 H         2.008697         1.163771         0.768941
 H         2.036142        -0.425370        -0.040456
 H         1.837538         0.939203        -1.060410
 H        -1.436809         1.976323        -0.574923
 H        -3.261142         0.038320         0.010872
 H        -1.372172        -0.363322         2.223321
 H        -2.260655        -1.794262         1.417999
 H         0.213275        -2.966580         0.462388
 H        -1.246837        -0.892294        -1.786786
 H        -2.213840        -2.995685        -1.929067
