19
Iteration:  2189charge 0 multiplicity 1
 C         1.497057         0.626259         0.145777
 C         0.052103         0.190816         0.034052
 C        -1.075509         0.797396        -0.287587
 C        -2.106759        -0.267953        -0.173205
 C        -1.775431        -0.830781         1.180100
 C        -0.431482        -1.135659         0.360023
 O         0.545942        -2.091831         0.582768
 C        -1.364288        -1.412283        -0.811083
 O        -1.980779        -2.630591        -0.576414
 H         2.172389         0.100176        -0.498436
 H         1.630366         1.763267        -0.019502
 H         1.932092         0.414786         1.162699
 H        -1.248220         1.880891        -0.633242
 H        -3.133077         0.015680        -0.398370
 H        -1.452667        -0.157439         2.029180
 H        -2.310856        -1.740913         1.562071
 H         0.213454        -2.969491         0.692812
 H        -1.047683        -1.325827        -1.850395
 H        -2.301866        -2.898499        -1.404820
