19
Iteration:  1738charge 0 multiplicity 1
 C         1.492620         0.703003         0.212923
 C         0.099939         0.232451         0.040531
 C        -0.965166         0.742164        -0.642672
 C        -2.128755        -0.271299        -0.344324
 C        -1.766753        -0.732929         1.130047
 C        -0.416459        -1.121444         0.388524
 O         0.493192        -2.151400         0.741694
 C        -1.352179        -1.512865        -0.772264
 O        -2.124937        -2.653988        -0.504148
 H         1.610981         1.770300         0.686997
 H         2.039407        -0.054430         0.772910
 H         1.984078         0.766729        -0.794663
 H        -1.154643         1.633573        -1.230521
 H        -3.123240        -0.128719        -0.749682
 H        -1.485355        -0.116981         2.010285
 H        -2.418029        -1.610718         1.490861
 H         0.372437        -2.154528         1.695452
 H        -0.816972        -1.340645        -1.754509
 H        -1.425769        -3.214421         0.032304
