19
Iteration:  4061
 C         1.579449         0.583754        -0.128931
 C         0.180860         0.105769        -0.216819
 C        -0.792205         0.447429        -1.119840
 C        -1.988478        -0.374419        -0.714586
 C        -1.864652        -0.300127         0.918408
 C        -0.501428        -0.955765         0.609235
 O         0.047518        -1.559887         1.709735
 C        -1.180483        -1.867784        -0.630472
 O        -2.067452        -2.911462        -0.268381
 H         1.957387         0.419963         0.858363
 H         2.232514         0.059856        -0.851321
 H         1.703346         1.668263        -0.356498
 H        -0.703794         1.136017        -2.049082
 H        -3.002471        -0.272028        -1.113629
 H        -1.849267         0.805637         1.311369
 H        -2.541512        -0.887018         1.504354
 H         0.846837        -2.113334         1.429035
 H        -0.485030        -2.145258        -1.350841
 H        -2.011628        -3.655185        -0.890287
