19
Iteration:  4586
 C         1.614817         0.484343        -0.132759
 C         0.232965         0.052341        -0.316105
 C        -0.685764         0.298153        -1.297543
 C        -1.886130        -0.512377        -0.912483
 C        -2.029714        -0.138596         0.636108
 C        -0.547478        -0.902293         0.647865
 O        -0.036131        -1.294984         1.846469
 C        -1.226687        -1.896762        -0.449892
 O        -2.053469        -3.007904        -0.071033
 H         2.246121        -0.397846        -0.278658
 H         2.003227         1.238751        -0.828577
 H         1.787001         0.724826         0.934208
 H        -0.510804         0.927237        -2.182858
 H        -2.741082        -0.465838        -1.623924
 H        -1.986865         0.838547         1.069788
 H        -2.780489        -0.851656         1.199130
 H         0.762769        -0.858383         1.962058
 H        -0.422569        -2.228798        -1.103918
 H        -1.569174        -3.556683         0.497386
