19
Iteration:  3558charge 0 multiplicity 1
 C         1.504524         0.615199         0.029804
 C         0.097562         0.194268        -0.094658
 C        -0.881023         0.679613        -0.817380
 C        -2.115107        -0.294628        -0.506731
 C        -1.884065        -0.589990         1.034496
 C        -0.510554        -1.081988         0.546800
 O         0.435052        -1.925803         1.217445
 C        -1.225724        -1.597150        -0.702519
 O        -2.033094        -2.804850        -0.460254
 H         1.622909         1.504792        -0.601190
 H         1.665998         0.846794         1.064203
 H         2.061700        -0.239271        -0.325113
 H        -0.887642         1.621169        -1.314866
 H        -3.028970        -0.244318        -1.072975
 H        -1.862678         0.280406         1.643521
 H        -2.469663        -1.491951         1.442575
 H         0.503912        -1.659038         2.098856
 H        -0.576083        -1.738548        -1.511230
 H        -2.248089        -3.160651        -1.281322
