19
Iteration:  3686charge 0 multiplicity 1
 C         1.594975         0.562512         0.002807
 C         0.098467         0.191260        -0.282650
 C        -0.983401         0.744418        -0.843989
 C        -2.020110        -0.279325        -0.568196
 C        -1.819220        -0.538696         0.983180
 C        -0.496014        -1.064823         0.512565
 O         0.308294        -1.854644         1.409617
 C        -1.274039        -1.635532        -0.706405
 O        -1.956671        -2.875728        -0.341422
 H         2.390015        -0.223912        -0.141287
 H         1.649680         1.458571        -0.765469
 H         1.659689         1.014585         0.998611
 H        -1.061546         1.304142        -1.790558
 H        -3.014078        -0.212136        -0.866937
 H        -1.784258         0.288207         1.680996
 H        -2.453261        -1.342840         1.398908
 H        -0.217704        -2.157358         2.206119
 H        -0.569549        -1.804226        -1.633903
 H        -2.389495        -3.259414        -1.203609
