19
Iteration:  3529charge 0 multiplicity 1
 C         1.538657         0.720100         0.040162
 C         0.140939         0.272810        -0.078861
 C        -0.952830         0.701867        -0.773804
 C        -2.083423        -0.318301        -0.487162
 C        -1.834105        -0.570307         1.000841
 C        -0.485306        -1.096025         0.515167
 O         0.307968        -2.074457         1.221030
 C        -1.250390        -1.598507        -0.770347
 O        -1.981844        -2.853268        -0.423852
 H         2.068510         0.761526        -0.941418
 H         1.489709         1.744127         0.484572
 H         2.183077        -0.006387         0.630328
 H        -1.027448         1.677925        -1.356313
 H        -3.127755        -0.209363        -0.931119
 H        -1.817453         0.357452         1.599919
 H        -2.498385        -1.375298         1.398248
 H         0.933585        -1.664361         1.907886
 H        -0.557772        -1.728410        -1.673269
 H        -2.708713        -2.929752        -1.088992
