19
Iteration:  2930charge 0 multiplicity 1
 C         1.474580         0.631063         0.062470
 C         0.032090         0.207066         0.094335
 C        -1.088994         0.809705        -0.302330
 C        -2.144143        -0.276626        -0.103208
 C        -1.651683        -0.723236         1.301109
 C        -0.454632        -1.128167         0.442184
 O         0.335695        -2.197381         0.769068
 C        -1.360674        -1.417640        -0.818519
 O        -1.881346        -2.717819        -0.996948
 H         1.717141         1.508908         0.728043
 H         2.317796        -0.092672         0.379752
 H         1.755102         0.981757        -1.005486
 H        -1.149604         1.810532        -0.901409
 H        -3.220973        -0.107051        -0.318717
 H        -1.357344         0.127907         1.847811
 H        -2.171400        -1.524200         1.868925
 H         1.258233        -1.861902         1.063853
 H        -1.120510        -1.131644        -1.886505
 H        -1.944879        -3.170121        -0.132626
