19
Iteration:  2605charge 0 multiplicity 1
 C         1.522962         0.547867        -0.017892
 C         0.040197         0.250655         0.105323
 C        -1.125132         0.923631        -0.036271
 C        -2.184987        -0.187563         0.057489
 C        -1.627905        -1.007920         1.302151
 C        -0.484591        -1.200283         0.405805
 O         0.623283        -2.045898         0.671091
 C        -1.431324        -1.316858        -0.843707
 O        -1.986217        -2.676931        -1.022601
 H         1.789072         1.429987        -0.659491
 H         1.963973         0.614943         1.010215
 H         1.982520        -0.270040        -0.554939
 H        -1.217447         1.805829        -0.595310
 H        -3.300588        -0.055475        -0.006720
 H        -1.678765        -0.499933         2.187817
 H        -2.112017        -2.007646         1.317482
 H         0.194805        -2.753424         1.175672
 H        -1.174499        -0.949694        -1.862460
 H        -2.104086        -2.722738        -1.943572
