19
Iteration:  4230charge 0 multiplicity 1
 C         1.519432         0.650518        -0.042943
 C         0.178139         0.133833        -0.302383
 C        -0.833105         0.506625        -1.188838
 C        -1.874772        -0.503662        -0.808006
 C        -1.898113        -0.248930         0.679573
 C        -0.486654        -1.044406         0.598947
 O         0.188938        -1.734712         1.702309
 C        -1.190051        -1.886594        -0.526451
 O        -2.090785        -2.778196        -0.102344
 H         1.641815         1.494700        -0.783262
 H         1.647090         0.855535         1.040789
 H         2.265738        -0.123099        -0.288221
 H        -1.067098         1.392137        -1.762931
 H        -2.851191        -0.558329        -1.382185
 H        -1.780542         0.758667         1.021757
 H        -2.780491        -0.779449         1.212263
 H         0.071197        -1.144851         2.454514
 H        -0.606157        -2.254993        -1.331324
 H        -2.051701        -3.588696        -0.548280
