19
Iteration:  1008charge 0 multiplicity 1
 C         1.489809         0.731886         0.140245
 C         0.073697         0.258362        -0.001349
 C        -0.958280         0.808379        -0.602945
 C        -2.137161        -0.215369        -0.205858
 C        -1.703204        -0.632442         1.232461
 C        -0.437624        -1.141134         0.414570
 O         0.346023        -2.229869         0.738049
 C        -1.417661        -1.503123        -0.772589
 O        -1.957920        -2.779120        -0.614598
 H         1.867033         0.662958         1.168439
 H         2.335484         0.065486        -0.400934
 H         1.400764         1.802317        -0.024054
 H        -1.146834         1.588665        -1.350915
 H        -3.214466        -0.203622        -0.490872
 H        -1.534461         0.196313         1.983141
 H        -2.261045        -1.407826         1.708498
 H         0.647386        -2.211474         1.679448
 H        -0.967799        -1.416750        -1.806268
 H        -1.218666        -3.481377        -0.781125
