19
Iteration:  1646
 C         1.530364         0.515535        -0.131790
 C         0.085294         0.217418        -0.069880
 C        -1.026309         0.779682        -0.563261
 C        -2.084473        -0.305009        -0.276013
 C        -1.857087        -0.784141         1.189694
 C        -0.455320        -1.079984         0.613784
 O         0.495233        -1.994827         1.234934
 C        -1.317620        -1.512794        -0.795160
 O        -2.098147        -2.625789        -0.843437
 H         2.219544        -0.155277         0.530236
 H         1.928448         0.415952        -1.172216
 H         1.749433         1.535925         0.194039
 H        -1.147702         1.619402        -1.159792
 H        -3.120661        -0.080561        -0.595297
 H        -1.903368        -0.117214         2.094066
 H        -2.363802        -1.716507         1.404072
 H         1.183460        -1.555817         1.749934
 H        -0.696781        -1.470914        -1.688702
 H        -1.669946        -3.374805        -1.099743
