19
Iteration:  4069
 C         1.590286         0.544348        -0.170898
 C         0.155890         0.186094        -0.219114
 C        -0.829786         0.527306        -1.043801
 C        -1.977426        -0.407228        -0.713562
 C        -1.845037        -0.319939         0.858081
 C        -0.505381        -0.949366         0.566094
 O         0.040992        -1.580466         1.743096
 C        -1.133742        -1.908882        -0.562275
 O        -2.081886        -2.906346        -0.273586
 H         2.080687         0.252329         0.786443
 H         2.244905         0.180218        -0.990180
 H         1.643071         1.597256        -0.242370
 H        -0.630668         0.788202        -2.048635
 H        -3.022151        -0.137001        -1.064218
 H        -1.806713         0.766277         1.090241
 H        -2.688685        -0.834705         1.428822
 H         0.880975        -2.016407         1.577536
 H        -0.433416        -2.223025        -1.402717
 H        -2.047961        -3.509677        -1.060981
