19
Iteration:   697
 C         1.540749         0.591905        -0.180702
 C         0.058560         0.276514         0.144764
 C        -1.066067         0.895729        -0.183245
 C        -2.208726        -0.174861        -0.068537
 C        -1.802813        -0.884619         1.251604
 C        -0.437706        -1.161173         0.443154
 O         0.406844        -2.230808         0.613756
 C        -1.371411        -1.379281        -0.802761
 O        -1.855170        -2.648784        -0.729322
 H         2.007194         0.590682         0.819257
 H         1.885805        -0.271731        -0.782258
 H         1.509406         1.531501        -0.764903
 H        -1.304181         1.786663        -0.727370
 H        -3.215709         0.075987        -0.465540
 H        -1.673259        -0.270530         2.149047
 H        -2.423663        -1.716147         1.493169
 H         0.906784        -2.105636         1.483880
 H        -0.926904        -1.036772        -1.770913
 H        -1.107153        -3.347112        -0.718358
