19
Iteration:   506
 C         1.567790         0.662369         0.072370
 C         0.119533         0.180043         0.013412
 C        -1.150870         0.891057        -0.273475
 C        -2.197348        -0.208883        -0.120412
 C        -1.812504        -0.858353         1.291105
 C        -0.409345        -1.181473         0.405902
 O         0.557106        -2.153176         0.591743
 C        -1.391865        -1.397757        -0.819612
 O        -1.874558        -2.689758        -0.696587
 H         1.979431         1.016386        -0.931362
 H         1.651439         1.480758         0.804428
 H         1.922573        -0.239703         0.555783
 H        -1.173116         1.911186        -0.721369
 H        -3.206756         0.101198        -0.395940
 H        -1.575589        -0.204761         2.084458
 H        -2.414485        -1.758918         1.468978
 H         0.145708        -2.937051         0.866398
 H        -1.119889        -1.063088        -1.873169
 H        -2.780991        -2.730911        -0.895483
