19
Iteration:  1406
 C         1.534022         0.550621        -0.137214
 C         0.089363         0.225754         0.012646
 C        -1.004024         0.781876        -0.547554
 C        -2.064204        -0.330664        -0.381752
 C        -1.896076        -0.673161         1.081640
 C        -0.445834        -1.101960         0.520222
 O         0.390905        -1.943908         1.253400
 C        -1.203159        -1.524874        -0.755066
 O        -2.061354        -2.717613        -0.664857
 H         1.741296         1.684584        -0.049855
 H         2.199189         0.024984         0.542419
 H         1.766092         0.388046        -1.212544
 H        -1.156462         1.751021        -0.918455
 H        -3.051257        -0.380205        -0.804996
 H        -2.118462         0.171579         1.735128
 H        -2.463392        -1.624415         1.445634
 H         0.837357        -2.382039         0.482591
 H        -0.586631        -1.641829        -1.700182
 H        -1.528635        -3.396739        -0.312134
