19
Iteration:  2640
 C         1.496640         0.676412         0.035272
 C         0.023950         0.254069         0.201150
 C        -1.139118         0.887938        -0.043375
 C        -2.157063        -0.227067        -0.178380
 C        -1.769712        -1.011456         1.223680
 C        -0.356367        -1.251818         0.353775
 O         0.558718        -2.238754         0.514309
 C        -1.351517        -1.316505        -0.865989
 O        -1.982835        -2.534761        -0.727118
 H         1.676533         1.832386         0.109058
 H         2.311011         0.245316         0.661125
 H         1.859116         0.325493        -0.945151
 H        -1.222199         1.908221        -0.354068
 H        -3.245754        -0.158893        -0.218293
 H        -1.671190        -0.422493         2.116938
 H        -2.258662        -1.961519         1.466618
 H         0.603512        -2.480358         1.453517
 H        -1.043055        -0.982864        -1.932015
 H        -2.143126        -2.933293        -1.550230
