19
Iteration:  2641
 C         1.502063         0.684884         0.040037
 C         0.025084         0.246034         0.201943
 C        -1.136909         0.887786        -0.036069
 C        -2.158465        -0.231246        -0.182757
 C        -1.773163        -1.007813         1.228456
 C        -0.348015        -1.240370         0.354244
 O         0.555454        -2.242340         0.513592
 C        -1.356625        -1.330010        -0.869532
 O        -1.986290        -2.537019        -0.732689
 H         1.642627         1.840572         0.133918
 H         2.310035         0.232082         0.659231
 H         1.859193         0.349157        -0.973834
 H        -1.214899         1.940089        -0.395633
 H        -3.231356        -0.138266        -0.222370
 H        -1.648398        -0.385197         2.153897
 H        -2.273494        -1.948279         1.468645
 H         0.625613        -2.470615         1.406762
 H        -1.038258        -0.993312        -1.929668
 H        -2.143513        -2.933961        -1.515048
