19
Iteration:  2592charge 0 multiplicity 1
 C         1.527811         0.558201        -0.041580
 C         0.078960         0.193368         0.111959
 C        -1.124054         0.841443        -0.108355
 C        -2.216288        -0.251170         0.114195
 C        -1.700701        -0.938145         1.356919
 C        -0.393983        -1.202358         0.370031
 O         0.638067        -2.014961         0.753402
 C        -1.521045        -1.326458        -0.828982
 O        -1.988620        -2.651103        -1.125538
 H         1.678898         1.403854        -0.641606
 H         1.977280         0.876807         0.926659
 H         2.138403        -0.311731        -0.324156
 H        -1.350013         1.949896        -0.353828
 H        -3.245536         0.107409        -0.077067
 H        -1.275388        -0.353874         2.163511
 H        -2.296381        -1.746586         1.777645
 H         0.443431        -3.023199         0.733637
 H        -1.061237        -0.876901        -1.675999
 H        -2.165690        -2.730453        -2.148051
