19
Iteration:  2081charge 0 multiplicity 1
 C         1.634541         0.600015        -0.194230
 C         0.072621         0.214153         0.106236
 C        -1.098156         0.850696        -0.172719
 C        -2.146336        -0.237978        -0.145438
 C        -1.772760        -0.886939         1.213009
 C        -0.456097        -1.158052         0.411861
 O         0.532916        -1.988088         0.951692
 C        -1.404755        -1.391066        -0.865232
 O        -2.006404        -2.723796        -0.786856
 H         1.628691         1.643680        -0.341784
 H         2.178933         0.276253         0.755436
 H         1.968553         0.023390        -1.071082
 H        -1.204324         1.810679        -0.690314
 H        -3.162102         0.117123        -0.199677
 H        -1.758363        -0.089385         2.033069
 H        -2.306355        -1.876135         1.269516
 H         0.166047        -2.840597         0.999120
 H        -0.853709        -1.309226        -1.809943
 H        -1.987552        -3.114901        -1.690822
