19
Iteration:  4714
 C         1.622293         0.491541         0.013050
 C         0.249029         0.004543        -0.354497
 C        -0.600519         0.053730        -1.473898
 C        -1.928656        -0.562692        -0.943745
 C        -2.029738        -0.082302         0.547877
 C        -0.615677        -0.883309         0.604560
 O        -0.085141        -1.284852         1.813754
 C        -1.216914        -1.828912        -0.427389
 O        -1.981150        -2.840421         0.150679
 H         1.499620         1.329317         0.761811
 H         2.447595        -0.167914         0.266705
 H         1.857140         1.085231        -0.906639
 H        -0.288382         0.745726        -2.253411
 H        -2.872101        -0.626294        -1.588996
 H        -2.199016         0.878207         0.887963
 H        -2.840245        -0.630912         1.070620
 H         0.589761        -2.031541         1.580660
 H        -0.521254        -2.196587        -1.252267
 H        -1.348020        -3.544030         0.571379
