19
Iteration:  2774charge 0 multiplicity 1
 C         1.463366         0.640536         0.098742
 C         0.077145         0.292223         0.080670
 C        -1.119233         0.942211        -0.249139
 C        -2.113038        -0.213340        -0.124300
 C        -1.691472        -0.952155         1.255841
 C        -0.438074        -1.202289         0.388510
 O         0.480549        -2.239931         0.711070
 C        -1.404707        -1.358117        -0.813911
 O        -1.954978        -2.609929        -0.863703
 H         1.923497        -0.319449         0.417697
 H         1.745855         1.052943        -0.913880
 H         1.640635         1.560134         0.809161
 H        -1.370270         1.990599        -0.352846
 H        -3.131004        -0.056379        -0.459615
 H        -1.499831        -0.482903         2.282140
 H        -2.325545        -1.776046         1.510168
 H         0.579791        -2.734159        -0.094489
 H        -0.844453        -1.108709        -1.816374
 H        -1.377679        -3.180584        -0.460519
