19
Iteration:  3254charge 0 multiplicity 1
 C         1.511785         0.750767         0.063455
 C         0.115753         0.236334        -0.096863
 C        -1.048077         0.701986        -0.635972
 C        -2.204079        -0.314043        -0.230217
 C        -1.686861        -0.703610         1.228296
 C        -0.387758        -1.152568         0.460589
 O         0.488895        -2.073424         1.019393
 C        -1.328185        -1.526789        -0.762670
 O        -2.108180        -2.662572        -0.717946
 H         2.028801         0.150445         0.873914
 H         2.182098         0.719828        -0.827627
 H         1.694945         1.783050         0.524012
 H        -1.258070         1.590375        -1.331090
 H        -3.158767         0.113489        -0.467979
 H        -1.568153         0.058344         1.955766
 H        -2.197072        -1.643926         1.581056
 H        -0.046190        -2.860522         1.223575
 H        -0.934146        -1.443031        -1.842963
 H        -1.469529        -3.459283        -0.708638
