19
Iteration:  1380charge 0 multiplicity 1
 C         1.517635         0.554960        -0.173619
 C         0.004634         0.236309         0.065845
 C        -0.984754         0.818377        -0.518508
 C        -2.059296        -0.186386        -0.423257
 C        -1.994986        -0.656537         1.112761
 C        -0.470072        -1.168718         0.582989
 O         0.528750        -1.930886         1.212621
 C        -1.242139        -1.531420        -0.691629
 O        -1.994547        -2.811540        -0.742722
 H         1.826216         1.528768        -0.116147
 H         2.196391        -0.120346         0.449505
 H         1.676672         0.291359        -1.189971
 H        -0.924066         1.585420        -1.370234
 H        -3.024299        -0.121080        -0.996708
 H        -2.083050         0.192783         1.818530
 H        -2.526072        -1.550448         1.391432
 H         0.595783        -2.724978         0.638024
 H        -0.589983        -1.633506        -1.611068
 H        -1.908278        -3.224996         0.151147
