19
Iteration:    76charge 0 multiplicity 1
 C         1.469842         0.741726         0.294191
 C         0.151065         0.240168        -0.047800
 C        -1.134859         0.791619        -0.204269
 C        -2.113792        -0.311718         0.100902
 C        -1.534201        -0.909632         1.411495
 C        -0.357474        -1.186122         0.316911
 O         0.667595        -2.162223         0.435040
 C        -1.470489        -1.373272        -0.839497
 O        -2.292632        -2.568456        -0.987651
 H         2.179352        -0.016080         0.205200
 H         2.017857         1.543542        -0.272133
 H         1.460444         0.968460         1.438896
 H        -1.362295         1.761507        -0.572838
 H        -3.177646        -0.158877        -0.043333
 H        -1.293217        -0.352797         2.344731
 H        -2.183610        -1.792659         1.676605
 H         0.243907        -2.811923         1.090526
 H        -1.259514        -0.980584        -1.852760
 H        -1.707084        -3.244468        -1.457513
