19
Iteration:  4424charge 0 multiplicity 1
 C         1.623337         0.454200        -0.097598
 C         0.175937         0.068549        -0.298539
 C        -0.719547         0.379045        -1.279530
 C        -1.909610        -0.419238        -0.812774
 C        -2.049182        -0.344547         0.727809
 C        -0.589754        -0.936428         0.631629
 O         0.096638        -1.309104         1.792166
 C        -1.242840        -1.812649        -0.553501
 O        -1.920696        -2.931218        -0.080004
 H         2.130617         0.509481        -1.048725
 H         1.549340         1.368561         0.569900
 H         2.205278        -0.360668         0.453233
 H        -0.587510         1.147451        -2.096960
 H        -2.880778        -0.572689        -1.328303
 H        -2.375559         0.522457         1.191936
 H        -2.646346        -1.268395         1.059260
 H         0.852765        -1.830204         1.592500
 H        -0.658135        -2.390619        -1.343667
 H        -2.827972        -2.797501        -0.095894
