19
Iteration:   809charge 0 multiplicity 1
 C         1.488564         0.687425         0.078444
 C         0.126490         0.232448        -0.053868
 C        -1.086255         0.837128        -0.373857
 C        -2.125727        -0.266026        -0.201769
 C        -1.650353        -0.848780         1.238742
 C        -0.350810        -1.178655         0.373729
 O         0.657101        -2.041516         0.822415
 C        -1.411667        -1.492375        -0.823152
 O        -2.195203        -2.696283        -0.634946
 H         2.117878        -0.113229        -0.278724
 H         1.849177         1.651764        -0.525892
 H         1.926371         0.893381         1.077326
 H        -1.378707         1.890727        -0.442584
 H        -3.146052        -0.060545        -0.475521
 H        -1.709192        -0.123726         2.027579
 H        -2.289340        -1.755568         1.415015
 H         0.235183        -2.915311         0.768336
 H        -1.142727        -1.479287        -1.887028
 H        -2.687778        -2.701647        -1.411326
