19
Iteration:     4charge 0 multiplicity 1
 C         1.492602         0.709536         0.123321
 C         0.058210         0.248141         0.148856
 C        -1.104575         0.879271        -0.021763
 C        -2.170483        -0.244987         0.030729
 C        -1.631769        -1.046308         1.273831
 C        -0.371437        -1.205318         0.317450
 O         0.537184        -2.240512         0.392040
 C        -1.428507        -1.307539        -0.867574
 O        -2.121676        -2.542697        -0.919913
 H         2.119832         0.501944         1.091243
 H         2.149802         0.203911        -0.590152
 H         1.638099         1.755417         0.023802
 H        -1.291657         1.918056        -0.074417
 H        -3.232416        -0.022001        -0.114719
 H        -1.383669        -0.607340         2.246783
 H        -2.152615        -1.961777         1.403438
 H         0.830719        -2.348522         1.295453
 H        -0.958395        -0.934443        -1.795481
 H        -1.466422        -3.232284        -0.998517
