19
Iteration:  2408charge 0 multiplicity 1
 C         1.554953         0.814105         0.028255
 C         0.167053         0.238060         0.100687
 C        -1.095150         0.826351        -0.137631
 C        -2.119087        -0.303280        -0.087076
 C        -1.660319        -1.044702         1.219083
 C        -0.402533        -1.194531         0.342467
 O         0.561458        -2.142191         0.722083
 C        -1.415634        -1.374317        -0.896720
 O        -2.153162        -2.554138        -0.745984
 H         1.463691         1.848483         0.256329
 H         2.272846         0.329272         0.756420
 H         1.938862         0.610439        -0.976908
 H        -1.319772         1.819596        -0.548884
 H        -3.149505        -0.081074        -0.307640
 H        -1.469944        -0.490612         2.137119
 H        -2.220268        -1.975353         1.284535
 H         0.055267        -3.002069         0.705999
 H        -1.046718        -1.319571        -1.959006
 H        -2.364060        -2.997883        -1.667427
