19
Iteration:  2785
 C         1.444352         0.639272         0.062024
 C        -0.021881         0.303655         0.035276
 C        -1.150528         0.951888        -0.219914
 C        -2.136092        -0.192398        -0.047350
 C        -1.659931        -0.841770         1.260721
 C        -0.419086        -1.167547         0.395947
 O         0.428067        -2.338320         0.742433
 C        -1.283662        -1.361544        -0.816914
 O        -1.929283        -2.659271        -0.926001
 H         2.119604        -0.243639         0.165944
 H         1.916728         1.139734        -0.826415
 H         1.743437         1.196399         1.046862
 H        -1.455045         1.946970        -0.370154
 H        -3.204964        -0.060060        -0.197558
 H        -1.568821        -0.142041         2.157174
 H        -2.119650        -1.797253         1.365017
 H         0.756920        -2.666790        -0.066336
 H        -0.967513        -0.998732        -1.868365
 H        -1.444783        -3.258693        -0.391403
