19
Iteration:  1851
 C         1.481011         0.578909        -0.262864
 C         0.099834         0.158640         0.137569
 C        -1.007613         0.852668        -0.246411
 C        -2.121120        -0.205651        -0.288643
 C        -1.970866        -0.660632         1.166015
 C        -0.455496        -1.227542         0.486291
 O         0.524778        -1.999700         1.047620
 C        -1.322524        -1.460094        -0.790715
 O        -1.884420        -2.789963        -0.716992
 H         1.563987         0.556225        -1.292349
 H         1.724480         1.590131         0.255718
 H         2.258843        -0.087954         0.125669
 H        -1.027719         1.750203        -0.872360
 H        -2.966441         0.165667        -0.913267
 H        -1.839946         0.171666         1.881337
 H        -2.323513        -1.617634         1.495072
 H         0.316068        -2.900483         1.043673
 H        -0.943102        -1.411478        -1.845322
 H        -2.400544        -2.882639        -1.442180
