19
Iteration:  3726
 C         1.550777         0.556450         0.119624
 C         0.071004         0.112210        -0.187352
 C        -0.903080         0.656377        -0.902007
 C        -2.100261        -0.287044        -0.625679
 C        -1.897303        -0.393029         1.011109
 C        -0.501646        -1.048860         0.569891
 O         0.475680        -1.767009         1.279449
 C        -1.298803        -1.713623        -0.702358
 O        -1.946992        -2.944738        -0.367521
 H         2.084187         0.624469        -0.827229
 H         1.489039         1.555277         0.550953
 H         2.070191        -0.187396         0.795127
 H        -0.841428         1.177403        -1.843931
 H        -3.077627        -0.160320        -1.167674
 H        -1.767715         0.728198         1.343638
 H        -2.701533        -0.939871         1.456629
 H         0.002251        -2.179778         1.992979
 H        -0.857090        -1.814377        -1.642160
 H        -2.856858        -2.873796        -0.510411
