19
Iteration:   241
 C         1.469558         0.635097         0.012742
 C         0.068359         0.186556         0.094679
 C        -1.162813         0.893476        -0.086916
 C        -2.084322        -0.259773        -0.046294
 C        -1.665206        -0.950751         1.265996
 C        -0.434589        -1.239301         0.361454
 O         0.664499        -2.127939         0.631866
 C        -1.397525        -1.346270        -0.854847
 O        -2.088066        -2.575757        -0.792288
 H         1.425890         1.729911        -0.179018
 H         2.010561         0.489049         1.044525
 H         1.929723         0.077803        -0.883544
 H        -1.437201         2.025891        -0.102854
 H        -3.145908        -0.111579        -0.261766
 H        -1.526634        -0.261554         2.141772
 H        -2.313519        -1.797771         1.494293
 H         0.669382        -2.818275         0.008058
 H        -1.106022        -1.047090        -1.891592
 H        -2.204694        -2.919933        -1.640340
