19
Iteration:  2169
 C         1.516110         0.649214         0.080286
 C         0.064078         0.242157        -0.031140
 C        -1.025067         0.939529        -0.292670
 C        -2.182235        -0.116254        -0.138043
 C        -1.779525        -0.915510         1.210783
 C        -0.450689        -1.194839         0.310780
 O         0.612621        -2.152488         0.763309
 C        -1.441083        -1.356315        -0.892763
 O        -1.947079        -2.777390        -0.624093
 H         2.074743         0.448441        -0.834324
 H         1.639960         1.735568         0.421194
 H         2.106844         0.099930         0.826142
 H        -1.051825         2.022551        -0.665546
 H        -3.205910         0.158207        -0.309599
 H        -1.718195        -0.416206         2.260037
 H        -2.261115        -1.959553         1.258547
 H         0.159476        -2.863166         1.178047
 H        -1.055382        -1.162385        -1.898495
 H        -2.706715        -3.026443        -1.309703
