19
Iteration:  2516
 C         1.505485         0.796149         0.047583
 C         0.082187         0.191642         0.069301
 C        -1.015386         0.876280         0.026012
 C        -2.148851        -0.147803        -0.054934
 C        -1.703367        -1.029851         1.157329
 C        -0.445453        -1.237996         0.275289
 O         0.476259        -2.249598         0.710900
 C        -1.440034        -1.381606        -0.916111
 O        -1.972691        -2.655568        -0.758810
 H         1.692032         1.388668        -0.830597
 H         1.761717         1.526407         0.887990
 H         2.432974         0.181662         0.003844
 H        -1.199776         1.972461        -0.338986
 H        -3.161643         0.235467        -0.227963
 H        -1.718717        -0.491592         2.048742
 H        -2.255909        -1.907662         1.282766
 H         1.342947        -2.183487         0.302554
 H        -1.310382        -1.103561        -1.994206
 H        -2.615037        -2.814886        -1.494380
