19
Iteration:  4303
 C         1.463437         0.486988        -0.047227
 C         0.087839         0.090186        -0.272974
 C        -0.782798         0.533814        -1.168051
 C        -1.857506        -0.449239        -0.825296
 C        -1.893660        -0.234047         0.717387
 C        -0.541447        -0.986600         0.606658
 O         0.081087        -1.591484         1.665558
 C        -1.114050        -1.821731        -0.529985
 O        -2.056160        -2.923236        -0.133846
 H         1.457076         1.010980         0.888956
 H         2.183639        -0.378634        -0.085806
 H         1.837858         1.210463        -0.820093
 H        -0.699885         1.112843        -2.041500
 H        -2.794380        -0.434579        -1.419404
 H        -1.875028         0.789135         0.966161
 H        -2.719153        -0.837725         1.236144
 H         1.030510        -1.241536         1.588391
 H        -0.338427        -2.230353        -1.265653
 H        -1.798914        -3.063024         0.827936
