19
Iteration:  4859charge 0 multiplicity 1
 C         1.687207         0.279384        -0.092691
 C         0.220132         0.080437        -0.337224
 C        -0.596187         0.163633        -1.485931
 C        -1.918735        -0.593818        -1.050088
 C        -2.048187        -0.187047         0.542206
 C        -0.664929        -0.810158         0.571757
 O        -0.183051        -1.040935         1.958160
 C        -1.182484        -1.879621        -0.426046
 O        -1.879865        -2.900678         0.270150
 H         2.409347         0.231161        -0.963442
 H         1.734821         1.370577         0.155041
 H         2.132068        -0.388174         0.702791
 H        -0.232035         0.726244        -2.465066
 H        -2.646031        -0.650019        -1.830513
 H        -2.322412         0.728730         0.965859
 H        -2.711565        -0.955687         0.966032
 H         0.346257        -1.916270         1.982750
 H        -0.413984        -2.167805        -1.231374
 H        -2.227499        -3.387146        -0.425650
