19
Iteration:  1936
 C         1.504054         0.697019         0.070793
 C         0.062454         0.171297         0.039748
 C        -0.975160         0.862218        -0.413762
 C        -2.065941        -0.156163        -0.291902
 C        -1.792867        -0.767356         1.195257
 C        -0.430937        -1.163182         0.494706
 O         0.607806        -2.011636         0.774059
 C        -1.382770        -1.557746        -0.770438
 O        -2.133030        -2.803729        -0.608720
 H         2.269152        -0.076137         0.342043
 H         1.807034         0.974765        -0.975102
 H         1.532079         1.533898         0.809241
 H        -0.986380         1.891189        -0.820892
 H        -3.117629         0.142307        -0.487868
 H        -1.730888        -0.097025         2.101544
 H        -2.542672        -1.643600         1.329906
 H         0.289822        -2.986248         0.708915
 H        -0.960896        -1.413031        -1.798483
 H        -2.138329        -3.177734        -1.617195
