19
Iteration:  3607charge 0 multiplicity 1
 C         1.581576         0.482565        -0.046427
 C         0.093267         0.188499        -0.121481
 C        -0.983136         0.654320        -0.802204
 C        -2.048831        -0.336451        -0.495189
 C        -1.785497        -0.526309         1.067129
 C        -0.507021        -1.039807         0.534937
 O         0.324020        -1.756900         1.368185
 C        -1.302243        -1.632686        -0.748067
 O        -1.981532        -2.782149        -0.525708
 H         1.648741         1.217593         0.755819
 H         2.206000        -0.430817         0.170579
 H         1.746494         0.969018        -1.017790
 H        -1.065349         1.603535        -1.292230
 H        -3.103651        -0.292590        -0.825331
 H        -1.761881         0.427390         1.696851
 H        -2.330180        -1.339228         1.481042
 H        -0.132655        -2.660445         1.590173
 H        -0.828163        -1.627762        -1.788217
 H        -1.398757        -3.577729        -0.777325
