19
Iteration:  2280
 C         1.538363         0.726703        -0.025112
 C         0.080680         0.288335         0.197119
 C        -1.131970         0.928546        -0.153287
 C        -2.171641        -0.219776        -0.113225
 C        -1.731132        -0.919747         1.197263
 C        -0.386881        -1.165987         0.401541
 O         0.636383        -2.184127         0.684100
 C        -1.316196        -1.514925        -0.871179
 O        -2.091924        -2.693817        -0.830507
 H         2.176133         0.454439         0.905828
 H         1.831326         0.150041        -0.939823
 H         1.524912         1.803043        -0.222644
 H        -1.152440         1.866695        -0.665040
 H        -3.198313         0.200273        -0.133271
 H        -1.543039        -0.277222         2.100192
 H        -2.269825        -1.871356         1.612041
 H         0.197541        -2.645997         1.485520
 H        -0.967830        -1.391887        -1.904085
 H        -2.835111        -2.587952        -1.376863
