19
Iteration:  1438
 C         1.582425         0.674460         0.018373
 C         0.104602         0.202243        -0.148730
 C        -0.994259         0.794515        -0.741470
 C        -2.088520        -0.228034        -0.230292
 C        -1.717280        -0.651081         1.129155
 C        -0.480090        -1.199182         0.431319
 O         0.292641        -2.041021         1.264623
 C        -1.384647        -1.501637        -0.829301
 O        -2.029614        -2.825982        -0.621661
 H         1.504279         1.809886        -0.054549
 H         2.050970         0.447592         0.992870
 H         2.274426         0.232669        -0.701244
 H        -1.064266         1.698509        -1.279321
 H        -3.156563        -0.208509        -0.386321
 H        -1.619501         0.120661         1.879839
 H        -2.351627        -1.547771         1.559728
 H         1.196443        -1.623053         1.235250
 H        -0.891437        -1.556276        -1.880575
 H        -1.392366        -3.467610        -1.069220
