19
Iteration:  4302charge 0 multiplicity 1
 C         1.460154         0.488030        -0.048380
 C         0.089814         0.091774        -0.272064
 C        -0.778142         0.527929        -1.172974
 C        -1.860041        -0.445808        -0.832995
 C        -1.898935        -0.232815         0.725245
 C        -0.542586        -0.981436         0.605214
 O         0.090298        -1.594509         1.664289
 C        -1.118158        -1.828304        -0.525582
 O        -2.056122        -2.924326        -0.133948
 H         1.452840         1.036267         0.903601
 H         2.177654        -0.391665        -0.028589
 H         1.823211         1.206911        -0.839899
 H        -0.687621         1.133008        -2.034881
 H        -2.780830        -0.426281        -1.427788
 H        -1.880911         0.816589         1.001185
 H        -2.711955        -0.819579         1.246168
 H         0.987596        -1.250007         1.588682
 H        -0.337320        -2.241567        -1.279859
 H        -1.790488        -3.060804         0.792647
