19
Iteration:  3199
 C         1.614169         0.672477         0.002472
 C         0.082472         0.208404         0.020676
 C        -1.010918         0.803419        -0.504480
 C        -2.133876        -0.293925        -0.270658
 C        -1.913880        -0.812458         1.197665
 C        -0.437130        -1.139387         0.476436
 O         0.577944        -1.936245         0.934186
 C        -1.323590        -1.511697        -0.787380
 O        -2.073265        -2.731199        -0.635655
 H         1.942980         1.341793         0.856698
 H         2.250401        -0.238886         0.045760
 H         1.908298         1.146787        -0.990572
 H        -1.221020         1.738764        -0.904496
 H        -3.133836         0.003098        -0.564891
 H        -1.958170        -0.121933         2.052671
 H        -2.568088        -1.680331         1.254668
 H         0.205473        -2.776237         1.407675
 H        -0.939712        -1.598206        -1.816897
 H        -2.044152        -3.116787        -1.602584
