19
Iteration:  2777charge 0 multiplicity 1
 C         1.454641         0.637047         0.085728
 C         0.045184         0.290729         0.069570
 C        -1.124998         0.965687        -0.249198
 C        -2.107735        -0.208626        -0.103456
 C        -1.674695        -0.900281         1.254760
 C        -0.440780        -1.198327         0.387703
 O         0.468919        -2.279680         0.726198
 C        -1.365502        -1.356550        -0.807143
 O        -1.947037        -2.619492        -0.884791
 H         1.897978        -0.302761         0.345725
 H         1.808757         1.114710        -0.868882
 H         1.656444         1.449333         0.831543
 H        -1.484751         1.941079        -0.314033
 H        -3.173429        -0.077272        -0.415187
 H        -1.527150        -0.470449         2.253781
 H        -2.284018        -1.852251         1.502990
 H         0.582605        -2.706236        -0.125025
 H        -0.901771        -1.098323        -1.800016
 H        -1.319654        -3.230196        -0.413328
