19
Iteration:  4308
 C         1.500163         0.482301        -0.055795
 C         0.114979         0.089075        -0.276341
 C        -0.817625         0.543085        -1.140793
 C        -1.876628        -0.474508        -0.792926
 C        -1.891435        -0.276420         0.678070
 C        -0.553290        -0.998680         0.599330
 O         0.057959        -1.563979         1.680149
 C        -1.109718        -1.800345        -0.560112
 O        -2.038077        -2.904539        -0.121256
 H         1.614756         0.901651         1.007250
 H         2.205445        -0.290378        -0.349501
 H         1.879818         1.250269        -0.696021
 H        -0.731631         1.088501        -2.136238
 H        -2.816065        -0.509251        -1.315527
 H        -1.846791         0.855523         0.911082
 H        -2.648740        -0.832803         1.127560
 H         0.966398        -1.363896         1.681805
 H        -0.388998        -2.165465        -1.229108
 H        -1.926017        -3.076201         0.788884
