19
Iteration:  1796charge 0 multiplicity 1
 C         1.513853         0.620893         0.060496
 C         0.064401         0.174102        -0.102635
 C        -1.013041         0.760824        -0.577416
 C        -2.144326        -0.259922        -0.157551
 C        -1.651162        -0.768543         1.175791
 C        -0.412332        -1.156492         0.433749
 O         0.530508        -1.956506         1.070773
 C        -1.416628        -1.443262        -0.912464
 O        -2.112670        -2.717757        -0.686987
 H         1.774510         1.510302        -0.455714
 H         1.735874         0.982996         1.140148
 H         2.277938        -0.149233        -0.136056
 H        -1.272073         1.718171        -1.024907
 H        -3.203459        -0.024520        -0.369869
 H        -1.336064        -0.075440         1.963714
 H        -2.216854        -1.614879         1.615100
 H        -0.001725        -2.727240         1.365676
 H        -1.033709        -1.387207        -1.962420
 H        -1.660683        -3.435789        -1.191818
