19
Iteration:  2878charge 0 multiplicity 1
 C         1.458505         0.633998        -0.010438
 C         0.077959         0.208352         0.178258
 C        -1.110553         0.737441        -0.250746
 C        -2.126969        -0.266331        -0.134398
 C        -1.694396        -0.959116         1.188154
 C        -0.368163        -1.163078         0.456734
 O         0.567543        -2.070029         0.926060
 C        -1.320938        -1.423278        -0.914839
 O        -2.135815        -2.593814        -1.017634
 H         1.535293         1.564120        -0.648965
 H         2.063464         0.916345         0.878022
 H         1.969207        -0.241696        -0.477199
 H        -1.180792         1.859110        -0.544001
 H        -3.106802         0.064996        -0.431774
 H        -1.764769        -0.307087         2.044396
 H        -2.180074        -2.011088         1.316483
 H         1.311137        -1.415268         1.222314
 H        -0.949969        -1.281998        -1.889612
 H        -2.551726        -2.613724        -0.043569
