19
Iteration:  4917charge 0 multiplicity 1
 C         1.601415         0.485435        -0.152426
 C         0.201390         0.053657        -0.335967
 C        -0.562480         0.033060        -1.484269
 C        -1.805476        -0.660978        -0.958459
 C        -2.034411        -0.081365         0.480658
 C        -0.687686        -0.797840         0.681118
 O        -0.056218        -1.137495         1.937456
 C        -1.131565        -1.958327        -0.353365
 O        -1.959478        -2.963729         0.113491
 H         1.816673         1.456233        -0.512611
 H         1.730772         0.350365         0.938837
 H         2.285288        -0.233549        -0.604018
 H        -0.322103         0.251853        -2.470122
 H        -2.652427        -0.716137        -1.691222
 H        -2.087623         1.050055         0.603201
 H        -2.811570        -0.619612         0.886439
 H        -0.445336        -0.668566         2.677700
 H        -0.274421        -2.366554        -0.891836
 H        -2.925197        -2.627129        -0.115224
