19
Iteration:  2803charge 0 multiplicity 1
 C         1.516660         0.690971         0.035571
 C         0.058136         0.253958         0.053129
 C        -1.092420         0.867242        -0.173606
 C        -2.211529        -0.216761        -0.010779
 C        -1.634925        -0.832061         1.307906
 C        -0.421080        -1.161852         0.387281
 O         0.318900        -2.276301         0.763100
 C        -1.412189        -1.390660        -0.852522
 O        -1.854490        -2.684520        -1.036466
 H         2.141129        -0.135089        -0.390937
 H         1.685491         1.599958        -0.495089
 H         1.857059         0.864999         1.025858
 H        -1.390064         1.818461        -0.811239
 H        -3.255701         0.023188        -0.162469
 H        -1.336077        -0.168926         2.124910
 H        -2.178832        -1.652274         1.812915
 H         1.180866        -2.209167         0.423635
 H        -1.028240        -1.100207        -1.798413
 H        -1.705370        -3.070226        -0.208818
