19
Iteration:  4895
 C         1.654198         0.348029        -0.174889
 C         0.171950         0.029522        -0.289188
 C        -0.634544         0.173291        -1.401159
 C        -1.824847        -0.729881        -1.039105
 C        -2.114039        -0.130707         0.426640
 C        -0.603179        -0.771539         0.722017
 O        -0.032759        -1.056361         1.915574
 C        -1.087065        -1.912709        -0.318389
 O        -1.963613        -2.932690         0.131851
 H         1.890992         0.953513        -0.995710
 H         1.870604         0.818456         0.819022
 H         2.280552        -0.534751        -0.158401
 H        -0.497917         0.730328        -2.245667
 H        -2.587051        -0.959981        -1.832960
 H        -2.149181         1.017064         0.485467
 H        -2.888497        -0.593988         0.974981
 H        -0.713174        -1.392812         2.574418
 H        -0.299661        -2.375966        -0.917020
 H        -2.676350        -2.759514        -0.406617
