19
Iteration:  2297charge 0 multiplicity 1
 C         1.490933         0.643340        -0.079826
 C         0.089079         0.256628         0.190986
 C        -1.065884         0.860702        -0.160423
 C        -2.078215        -0.226634        -0.111006
 C        -1.765970        -0.960164         1.251524
 C        -0.435663        -1.246121         0.448177
 O         0.584885        -2.063023         0.661880
 C        -1.421052        -1.338830        -0.825412
 O        -2.007193        -2.700072        -0.845694
 H         2.114323         0.793994         0.751753
 H         1.982854        -0.179188        -0.648526
 H         1.538094         1.559774        -0.698158
 H        -1.224696         1.956258        -0.253995
 H        -3.069183        -0.184219        -0.536946
 H        -1.795560        -0.348735         2.155709
 H        -2.344377        -1.846676         1.333773
 H         0.452337        -2.614788         1.474807
 H        -0.859011        -1.085192        -1.742066
 H        -2.748721        -2.574702        -1.344756
