19
Iteration:  1859charge 0 multiplicity 1
 C         1.493722         0.534764        -0.235550
 C         0.055049         0.177017         0.100810
 C        -1.008139         0.845283        -0.274958
 C        -2.143810        -0.157559        -0.232629
 C        -1.866137        -0.691604         1.107777
 C        -0.475040        -1.142443         0.492464
 O         0.498414        -2.044702         1.065547
 C        -1.355169        -1.390797        -0.834889
 O        -1.816623        -2.831531        -0.708554
 H         1.609124         0.450670        -1.357160
 H         1.509494         1.564527         0.082700
 H         2.206488        -0.137882         0.299105
 H        -1.115514         1.708523        -0.909385
 H        -3.108633         0.154105        -0.640423
 H        -1.745525         0.020403         1.940829
 H        -2.510812        -1.574401         1.493263
 H         0.156542        -2.924790         1.086543
 H        -0.759720        -1.129702        -1.746028
 H        -2.504214        -3.072345        -1.299921
