19
Iteration:  4562charge 0 multiplicity 1
 C         1.592273         0.425886        -0.087785
 C         0.152721         0.035716        -0.254411
 C        -0.663935         0.282684        -1.300392
 C        -1.923898        -0.525586        -0.969531
 C        -2.081400        -0.253553         0.585425
 C        -0.616870        -0.864211         0.678094
 O        -0.022395        -1.455518         1.755283
 C        -1.146065        -1.825809        -0.528000
 O        -1.936528        -2.756644         0.075216
 H         2.285997        -0.281510         0.419731
 H         1.992788         0.555323        -1.076783
 H         1.655087         1.307736         0.519647
 H        -0.447199         0.790232        -2.281397
 H        -2.922991        -0.386286        -1.483663
 H        -2.177382         0.771240         0.951203
 H        -2.783039        -1.000287         1.105916
 H         0.882044        -0.988545         1.713164
 H        -0.404847        -2.154859        -1.216541
 H        -1.469764        -3.376045         0.736445
