19
Iteration:  1120charge 0 multiplicity 1
 C         1.476468         0.480572        -0.139326
 C         0.101235         0.220333         0.004109
 C        -1.083919         0.779563        -0.527726
 C        -2.198241        -0.266758        -0.181667
 C        -1.765374        -0.687287         1.244312
 C        -0.443040        -1.115977         0.535195
 O         0.544333        -2.003020         1.085184
 C        -1.318135        -1.483934        -0.763640
 O        -2.026401        -2.679616        -0.863080
 H         2.010395        -0.284155        -0.749539
 H         1.598542         1.509970        -0.618529
 H         2.102414         0.384741         0.738745
 H        -1.195213         1.631150        -1.212269
 H        -3.248939        -0.240656        -0.486593
 H        -1.624356         0.190160         1.889754
 H        -2.378121        -1.536268         1.683511
 H         0.248284        -2.214320         2.025579
 H        -0.655661        -1.263041        -1.618381
 H        -1.335597        -3.234546        -1.136322
