19
Iteration:  3894
 C         1.564711         0.443181        -0.169335
 C         0.133949         0.222324        -0.140034
 C        -0.790478         0.605612        -0.984108
 C        -2.020374        -0.315627        -0.651179
 C        -1.998797        -0.431675         0.888364
 C        -0.560247        -1.024563         0.597056
 O         0.177543        -1.659323         1.624212
 C        -1.244948        -1.701253        -0.652222
 O        -1.941006        -2.931529        -0.363539
 H         2.162280        -0.289380        -0.782894
 H         1.809018         1.405406        -0.705011
 H         2.023420         0.601201         0.775824
 H        -0.779855         1.400798        -1.778114
 H        -2.975624        -0.257825        -1.216953
 H        -2.058645         0.455723         1.485652
 H        -2.692020        -1.262288         1.319751
 H         1.113770        -1.970684         1.305756
 H        -0.679970        -1.835143        -1.566474
 H        -1.685369        -3.230316         0.477790
