19
Iteration:   866charge 0 multiplicity 1
 C         1.596255         0.606095        -0.110554
 C         0.040414         0.268998        -0.034168
 C        -1.124836         0.879679        -0.414922
 C        -2.230021        -0.183602        -0.100942
 C        -1.754761        -0.728164         1.290656
 C        -0.467000        -1.153001         0.505613
 O         0.361258        -2.233277         0.795899
 C        -1.328000        -1.382730        -0.803720
 O        -1.678430        -2.743195        -0.666994
 H         1.842183         0.598539        -1.129175
 H         1.848889         1.503937         0.594726
 H         2.013816        -0.300811         0.275782
 H        -1.306117         1.818874        -0.932377
 H        -3.316368        -0.120633        -0.348406
 H        -1.721612         0.093580         2.096551
 H        -2.479462        -1.490141         1.673940
 H        -0.169080        -3.084218         0.914461
 H        -0.872257        -1.115585        -1.764182
 H        -2.495484        -2.833530        -1.300974
