19
Iteration:  2822
 C         1.512457         0.705738        -0.001220
 C         0.092076         0.184327         0.074393
 C        -1.033275         0.794329        -0.315505
 C        -2.154128        -0.166044         0.017746
 C        -1.668884        -0.916883         1.305870
 C        -0.446068        -1.187855         0.405420
 O         0.392235        -2.199754         0.838476
 C        -1.501510        -1.346671        -0.831662
 O        -1.872118        -2.698338        -1.071135
 H         1.945382         0.365757        -0.940467
 H         1.252348         1.780206         0.022954
 H         2.143450         0.540280         0.874319
 H        -0.932519         1.917137        -0.372304
 H        -3.196916         0.193484        -0.119356
 H        -1.649717        -0.338937         2.207471
 H        -2.353439        -1.814651         1.572533
 H         1.258990        -1.772763         0.820163
 H        -1.155927        -0.997846        -1.795884
 H        -2.202031        -3.182990        -0.299690
