19
Iteration:  1317
 C         1.484347         0.664557         0.019768
 C         0.073422         0.185121        -0.073078
 C        -1.004800         0.730077        -0.630082
 C        -2.089872        -0.173519        -0.334966
 C        -1.697194        -0.605185         1.145889
 C        -0.465512        -1.122204         0.481019
 O         0.438998        -2.034841         1.063731
 C        -1.387141        -1.548044        -0.788821
 O        -1.930811        -2.847242        -0.586608
 H         1.683412         1.656939        -0.405479
 H         1.781275         0.721012         1.151811
 H         2.112327        -0.114929        -0.455245
 H        -1.294208         1.748536        -1.010467
 H        -3.128168         0.052357        -0.623744
 H        -1.718955         0.230057         1.816723
 H        -2.396742        -1.317697         1.688521
 H         0.031944        -2.725081         1.651157
 H        -0.769245        -1.462944        -1.730726
 H        -2.344186        -3.113654        -1.425793
