19
Iteration:  2460
 C         1.502944         0.615526         0.206146
 C         0.041800         0.235233        -0.013022
 C        -1.125925         0.809655        -0.321821
 C        -2.180834        -0.223349         0.062904
 C        -1.636471        -0.937719         1.358190
 C        -0.421358        -1.219171         0.387821
 O         0.583969        -2.158124         0.503442
 C        -1.386161        -1.366589        -0.849327
 O        -2.048018        -2.602251        -0.855995
 H         1.898450         1.537121        -0.161557
 H         1.533806         0.857991         1.313965
 H         2.245489        -0.225016         0.055758
 H        -1.316701         1.721505        -0.813902
 H        -3.216188         0.027053         0.060686
 H        -1.358516        -0.158715         2.049636
 H        -2.234970        -1.738554         1.652864
 H         1.270009        -1.844699         1.260944
 H        -1.227421        -1.125430        -1.906673
 H        -2.656161        -2.720215        -1.734301
