19
Iteration:  1028charge 0 multiplicity 1
 C         1.484482         0.766379         0.130194
 C         0.077544         0.262536        -0.051933
 C        -1.034893         0.745188        -0.495111
 C        -2.121780        -0.247484        -0.296690
 C        -1.746208        -0.632643         1.164908
 C        -0.442409        -1.106196         0.457353
 O         0.342097        -2.328342         0.726872
 C        -1.318276        -1.466156        -0.758374
 O        -1.961326        -2.717384        -0.568627
 H         2.162979         0.320179         0.856656
 H         2.052881         0.487068        -0.803436
 H         1.663320         1.818167         0.368344
 H        -1.241021         1.707263        -0.975964
 H        -3.128352         0.016383        -0.719524
 H        -1.631805         0.226981         1.809006
 H        -2.350038        -1.413583         1.544578
 H         0.888966        -2.227854         1.474486
 H        -0.780169        -1.557011        -1.714895
 H        -1.480550        -3.379304        -0.060487
