19
Iteration:  4750
 C         1.645548         0.545975        -0.082119
 C         0.161053         0.049004        -0.331221
 C        -0.641349         0.221579        -1.419567
 C        -1.833986        -0.661467        -0.974199
 C        -1.927742        -0.149590         0.512796
 C        -0.574499        -0.914716         0.640230
 O        -0.005571        -1.199460         1.957627
 C        -1.169944        -1.989291        -0.400274
 O        -2.228838        -2.889787        -0.001142
 H         1.934989         0.406966         0.953063
 H         2.462988         0.193247        -0.704195
 H         1.595401         1.602663        -0.267344
 H        -0.414926         0.700835        -2.355176
 H        -2.622263        -0.824705        -1.664238
 H        -1.844766         0.922856         0.645817
 H        -2.764944        -0.751668         0.980711
 H         1.034860        -1.189063         1.946302
 H        -0.480548        -2.546224        -1.008214
 H        -2.043223        -3.159963         0.979329
