19
Iteration:  4423charge 0 multiplicity 1
 C         1.630033         0.452615        -0.098656
 C         0.174933         0.066424        -0.300399
 C        -0.725477         0.390012        -1.288417
 C        -1.909878        -0.412038        -0.810868
 C        -2.046915        -0.348677         0.733191
 C        -0.594520        -0.926480         0.640161
 O         0.088824        -1.310791         1.791585
 C        -1.236691        -1.816972        -0.559072
 O        -1.918035        -2.935704        -0.076554
 H         2.165632         0.479285        -1.046765
 H         1.533961         1.368841         0.548295
 H         2.201151        -0.344061         0.484058
 H        -0.578559         1.116649        -2.109572
 H        -2.885212        -0.557864        -1.339392
 H        -2.374055         0.513850         1.204080
 H        -2.635889        -1.286860         1.055386
 H         0.891524        -1.858031         1.579052
 H        -0.653472        -2.385576        -1.366859
 H        -2.859077        -2.810454        -0.081982
