19
Iteration:  4031charge 0 multiplicity 1
 C         1.565048         0.595876         0.000820
 C         0.221358        -0.017852        -0.308069
 C        -0.778124         0.461791        -1.123560
 C        -2.059309        -0.270675        -0.725430
 C        -1.978463        -0.307599         0.815884
 C        -0.469933        -1.019330         0.587263
 O         0.217936        -1.609388         1.631781
 C        -1.318187        -1.769381        -0.626164
 O        -2.037471        -2.881388        -0.166008
 H         1.403172         1.070849         0.976952
 H         2.371246        -0.142435         0.110510
 H         1.788527         1.450774        -0.740127
 H        -0.626254         1.052311        -2.092216
 H        -3.015867        -0.102941        -1.156213
 H        -2.007407         0.683800         1.285810
 H        -2.628995        -1.020257         1.276239
 H         0.803312        -2.243139         1.328482
 H        -0.605135        -2.088453        -1.463212
 H        -1.530177        -3.740045        -0.275458
