19
Iteration:   577charge 0 multiplicity 1
 C         1.481360         0.737275         0.143784
 C         0.080917         0.192312         0.004779
 C        -1.017518         0.730680        -0.339189
 C        -2.159164        -0.204390        -0.126399
 C        -1.634072        -0.854966         1.198850
 C        -0.392657        -1.152571         0.388358
 O         0.584437        -2.098021         0.717338
 C        -1.381609        -1.447427        -0.817490
 O        -2.150252        -2.633474        -0.686621
 H         1.251169         1.778872         0.238004
 H         1.996841         0.245340         0.979466
 H         1.956808         0.400150        -0.795755
 H        -1.155986         1.835445        -0.631531
 H        -3.225396        -0.146884        -0.458370
 H        -1.501500        -0.180850         2.097753
 H        -2.093103        -1.825808         1.464027
 H         0.198300        -2.955031         0.649655
 H        -0.961989        -1.314066        -1.813658
 H        -2.095731        -3.005125        -1.529310
