19
Iteration:   995
 C         1.490998         0.737871         0.169208
 C         0.134809         0.191262        -0.109396
 C        -1.029565         0.800722        -0.600115
 C        -2.115710        -0.199468        -0.238274
 C        -1.693896        -0.719604         1.269293
 C        -0.506239        -1.145647         0.414836
 O         0.437498        -2.152663         0.816099
 C        -1.411232        -1.492484        -0.757424
 O        -2.015759        -2.804613        -0.647978
 H         1.633703         0.880998         1.251549
 H         2.238717        -0.013695        -0.325629
 H         1.790980         1.542838        -0.523240
 H        -1.091247         1.867153        -0.844793
 H        -3.098527         0.246140        -0.541209
 H        -1.465012         0.016473         2.011949
 H        -2.338473        -1.531929         1.558527
 H         0.483227        -2.040765         1.779551
 H        -0.983329        -1.260612        -1.767755
 H        -1.315027        -3.337123        -0.950515
