19
Iteration:  3008
 C         1.430252         0.667028         0.095385
 C         0.038444         0.272111         0.080407
 C        -1.077300         0.852339        -0.429933
 C        -2.071527        -0.289982        -0.207155
 C        -1.697994        -0.744433         1.176536
 C        -0.365049        -1.131027         0.424540
 O         0.627857        -2.153532         0.847938
 C        -1.342134        -1.495083        -0.805205
 O        -2.212585        -2.687165        -0.814548
 H         2.140399        -0.054969         0.557760
 H         1.883964         0.836670        -0.940784
 H         1.708962         1.546673         0.726414
 H        -1.342448         1.820856        -0.599204
 H        -3.108021        -0.236925        -0.344921
 H        -1.730087        -0.103176         1.985705
 H        -2.254192        -1.699220         1.391134
 H         0.563851        -2.308501         1.793249
 H        -0.729051        -1.471845        -1.758846
 H        -1.718215        -3.313688        -1.245153
