19
Iteration:  1251charge 0 multiplicity 1
 C         1.435254         0.642001         0.128393
 C         0.092725         0.209513        -0.139610
 C        -1.025295         0.801388        -0.552003
 C        -2.052040        -0.318560        -0.334265
 C        -1.625897        -0.695465         1.118374
 C        -0.427080        -1.199726         0.421104
 O         0.544238        -1.950948         1.070384
 C        -1.348458        -1.594968        -0.838918
 O        -2.219995        -2.714804        -0.626833
 H         1.968080         1.169611        -0.649185
 H         1.420783         1.524951         0.926475
 H         2.068692        -0.042783         0.695867
 H        -1.223132         1.606060        -1.279989
 H        -3.033245         0.022894        -0.682597
 H        -1.584272         0.270307         1.595985
 H        -2.234249        -1.510549         1.601526
 H         0.719737        -2.867437         0.851913
 H        -0.980303        -1.489277        -1.871729
 H        -1.864903        -3.027706         0.199862
