19
Iteration:  1232charge 0 multiplicity 1
 C         1.497514         0.675682         0.157782
 C         0.132536         0.166419        -0.201485
 C        -0.991823         0.730848        -0.664603
 C        -2.169039        -0.218621        -0.258313
 C        -1.687606        -0.615785         1.215833
 C        -0.382714        -1.166598         0.381387
 O         0.523349        -1.957115         1.108123
 C        -1.443108        -1.571475        -0.775271
 O        -2.092853        -2.818135        -0.726944
 H         2.041639         1.010759        -0.795465
 H         1.539580         1.547620         0.807212
 H         2.097646        -0.075078         0.762867
 H        -1.116000         1.853573        -0.825789
 H        -3.239607        -0.146634        -0.516459
 H        -1.405870         0.202324         1.917553
 H        -2.361186        -1.510414         1.525218
 H         0.636355        -2.650919         0.495946
 H        -1.059688        -1.639648        -1.806151
 H        -2.448742        -3.059731         0.190566
