19
Iteration:  3589charge 0 multiplicity 1
 C         1.593732         0.549958         0.000499
 C         0.161348         0.192164        -0.136147
 C        -0.949576         0.752627        -0.740412
 C        -2.146982        -0.265080        -0.436363
 C        -1.864571        -0.558956         1.039254
 C        -0.517215        -1.082621         0.467997
 O         0.417147        -1.764052         1.304671
 C        -1.290024        -1.652980        -0.770446
 O        -2.029892        -2.902755        -0.496610
 H         1.689548         1.577631         0.415863
 H         1.966609        -0.256147         0.687938
 H         2.146978         0.386134        -0.926630
 H        -0.928970         1.395413        -1.574834
 H        -3.031398        -0.048949        -0.968954
 H        -1.774708         0.308595         1.657537
 H        -2.497579        -1.325606         1.554508
 H        -0.165106        -2.037726         2.136239
 H        -0.708748        -1.766081        -1.725584
 H        -1.694935        -3.643976        -1.141443
