19
Iteration:  4907charge 0 multiplicity 1
 C         1.612467         0.416273        -0.131124
 C         0.189119         0.031900        -0.367537
 C        -0.575091         0.112352        -1.444644
 C        -1.805034        -0.701759        -1.013970
 C        -2.076633        -0.142650         0.468135
 C        -0.715065        -0.785750         0.659047
 O        -0.005353        -1.123064         1.971193
 C        -1.092523        -1.880798        -0.307634
 O        -1.970731        -2.933881         0.098021
 H         1.868381         1.234347        -0.749255
 H         1.987364         0.704266         0.860965
 H         2.146269        -0.399102        -0.570978
 H        -0.366734         0.507102        -2.381884
 H        -2.706202        -0.969430        -1.647929
 H        -1.994842         1.038630         0.441393
 H        -2.917037        -0.480835         1.059828
 H        -0.656338        -0.919771         2.589673
 H        -0.195399        -2.295535        -0.714521
 H        -2.956523        -2.958705        -0.177175
