19
Iteration:  3208
 C         1.615067         0.697395        -0.024526
 C         0.148210         0.225104         0.010587
 C        -1.060514         0.712844        -0.421257
 C        -2.132744        -0.213532        -0.250554
 C        -1.929346        -0.776653         1.108293
 C        -0.444630        -1.164460         0.449517
 O         0.619543        -1.960158         0.971205
 C        -1.352735        -1.543255        -0.826461
 O        -2.107850        -2.742861        -0.627764
 H         1.889882         1.243806         0.979819
 H         2.271240        -0.193100        -0.122614
 H         1.906003         1.472941        -0.779136
 H        -1.234040         1.642634        -0.799829
 H        -3.132101        -0.081406        -0.698852
 H        -1.850381         0.022725         1.919251
 H        -2.425449        -1.660930         1.433694
 H         0.065204        -2.671400         1.489172
 H        -0.740068        -1.317787        -1.825956
 H        -2.015038        -3.321133        -1.508293
