19
Iteration:    64charge 0 multiplicity 1
 C         1.456740         0.745364         0.322116
 C         0.080946         0.188389         0.003040
 C        -1.059523         0.839249        -0.266187
 C        -2.105236        -0.242047         0.043279
 C        -1.564738        -0.999029         1.330741
 C        -0.372272        -1.239406         0.306921
 O         0.601862        -2.197349         0.361048
 C        -1.516727        -1.350372        -0.777966
 O        -2.174440        -2.545759        -0.864389
 H         2.124115        -0.073357         0.413433
 H         1.640932         1.489592        -0.494101
 H         1.439614         1.401450         1.304111
 H        -1.290864         1.896100        -0.281384
 H        -3.123269         0.125697        -0.027556
 H        -1.293776        -0.317632         2.171915
 H        -2.122343        -1.955050         1.627001
 H         0.537716        -2.780137         1.081787
 H        -1.098048        -1.013285        -1.760235
 H        -1.645380        -3.056751        -1.425667
