19
Iteration:   906
 C         1.507853         0.618668        -0.135985
 C         0.045761         0.167257        -0.008960
 C        -1.022932         0.787653        -0.401703
 C        -2.162460        -0.210382        -0.153982
 C        -1.772331        -0.766398         1.257283
 C        -0.478927        -1.194043         0.487905
 O         0.563604        -1.998328         1.100062
 C        -1.395309        -1.443345        -0.802854
 O        -2.002667        -2.724233        -0.868529
 H         1.533858         1.495151        -0.874407
 H         2.100861         0.834671         0.765552
 H         2.237357        -0.050149        -0.685471
 H        -1.099908         1.883000        -0.570392
 H        -3.199796         0.099243        -0.233293
 H        -1.518807        -0.143013         2.041658
 H        -2.320473        -1.662559         1.599704
 H         0.391710        -2.899602         0.884518
 H        -0.963035        -1.172605        -1.786786
 H        -1.758547        -3.199385        -1.614285
