19
Iteration:   152charge 0 multiplicity 1
 C         1.445454         0.667059        -0.178569
 C         0.046065         0.334780         0.283124
 C        -1.076284         0.910187        -0.043703
 C        -2.129357        -0.228099         0.018613
 C        -1.752458        -1.079996         1.275932
 C        -0.386462        -1.227904         0.451642
 O         0.577218        -2.175954         0.640417
 C        -1.325338        -1.304571        -0.870641
 O        -2.032473        -2.616447        -0.925448
 H         1.561983         0.814914        -1.220745
 H         2.056014         1.567981         0.181915
 H         2.279454        -0.113017         0.025173
 H        -1.194722         1.963128        -0.179772
 H        -3.116981         0.050778        -0.315836
 H        -1.795101        -0.592390         2.296443
 H        -2.130646        -2.143463         1.249032
 H         0.219875        -2.941926         1.029671
 H        -0.933963        -0.993030        -1.877382
 H        -2.476890        -2.654774        -1.740098
