19
Iteration:  3516
 C         1.538750         0.781307         0.039787
 C         0.120061         0.162218        -0.152372
 C        -0.918133         0.776071        -0.771815
 C        -2.060027        -0.205968        -0.523529
 C        -1.880975        -0.560043         1.052486
 C        -0.431281        -1.110628         0.483490
 O         0.265993        -2.078205         1.212966
 C        -1.304539        -1.708023        -0.662885
 O        -1.914577        -2.884535        -0.463574
 H         2.151886         0.413845        -0.815785
 H         1.674922         1.855792         0.094149
 H         1.891663         0.373931         1.029980
 H        -1.023792         1.786314        -1.067550
 H        -3.014258        -0.011563        -1.044603
 H        -1.899975         0.206262         1.797211
 H        -2.358466        -1.544707         1.512294
 H         0.897359        -1.564421         1.744358
 H        -0.931144        -1.694499        -1.683879
 H        -2.736873        -2.915307        -1.006202
