19
Iteration:  3026
 C         1.496995         0.650378         0.120823
 C         0.083845         0.225136        -0.109531
 C        -1.099832         0.813432        -0.455799
 C        -2.139696        -0.277741        -0.204765
 C        -1.663003        -0.890383         1.324535
 C        -0.408209        -1.205490         0.468478
 O         0.623793        -1.968805         0.889595
 C        -1.322980        -1.514653        -0.760534
 O        -2.214833        -2.606115        -0.877551
 H         2.108425        -0.209931         0.294224
 H         1.990734         1.213562        -0.626803
 H         1.525492         1.236930         1.051157
 H        -1.240396         1.741827        -1.133301
 H        -3.148220        -0.062023        -0.648852
 H        -1.539008        -0.103024         2.133208
 H        -2.283231        -1.724631         1.691098
 H         0.442895        -2.625288         1.574987
 H        -0.846984        -1.381123        -1.764348
 H        -1.880783        -3.353636        -1.246665
