19
Iteration:  3424charge 0 multiplicity 1
 C         1.527353         0.575456        -0.018373
 C         0.062235         0.245314         0.016456
 C        -0.992437         0.743175        -0.671631
 C        -2.081712        -0.299041        -0.405357
 C        -1.854225        -0.694338         1.065951
 C        -0.453595        -1.157481         0.473989
 O         0.508525        -1.902713         1.231136
 C        -1.340071        -1.564774        -0.873227
 O        -2.067383        -2.774249        -0.618659
 H         1.930548         1.156604         0.830429
 H         2.246759        -0.273173        -0.022346
 H         1.674021         1.157757        -0.914471
 H        -1.036963         1.836105        -1.035143
 H        -3.098623        -0.017244        -0.789861
 H        -1.804613         0.244997         1.740291
 H        -2.440656        -1.485499         1.466024
 H         0.391483        -2.038175         2.145526
 H        -0.960910        -1.478516        -1.850236
 H        -1.334751        -3.318032        -0.298371
