19
Iteration:  1236charge 0 multiplicity 1
 C         1.494782         0.689865         0.163663
 C         0.115763         0.142922        -0.188825
 C        -1.012729         0.712399        -0.619460
 C        -2.144135        -0.224028        -0.283506
 C        -1.692224        -0.608950         1.193045
 C        -0.360152        -1.147389         0.359055
 O         0.534253        -1.947191         1.123230
 C        -1.422654        -1.565286        -0.814355
 O        -2.131927        -2.802108        -0.704181
 H         2.030756         0.926490        -0.755246
 H         1.403324         1.515760         0.850739
 H         2.016060        -0.135271         0.651618
 H        -1.120284         1.737372        -0.894176
 H        -3.217647        -0.153345        -0.476654
 H        -1.329326         0.099608         1.963670
 H        -2.270566        -1.409206         1.556321
 H         0.587269        -2.714473         0.437462
 H        -0.969136        -1.642428        -1.819365
 H        -2.271930        -3.093428         0.184729
