19
Iteration:  2490
 C         1.446142         0.637673         0.165763
 C         0.054084         0.257417         0.125799
 C        -1.095943         0.946473        -0.216226
 C        -2.156214        -0.185682        -0.059009
 C        -1.618051        -0.919316         1.261311
 C        -0.434067        -1.153853         0.369190
 O         0.499779        -2.241421         0.514299
 C        -1.405778        -1.419297        -0.823100
 O        -1.972823        -2.720106        -0.818169
 H         1.892049         1.286358        -0.593210
 H         1.656536         1.180399         1.060373
 H         2.232239        -0.132003         0.164661
 H        -1.213266         1.971159        -0.254073
 H        -3.209437         0.090124        -0.124589
 H        -1.499528        -0.187144         2.149032
 H        -2.252654        -1.804845         1.581018
 H         1.385826        -2.003718         0.438449
 H        -1.232157        -1.164658        -1.848019
 H        -2.633481        -2.688640        -1.483617
