19
Iteration:  1570charge 0 multiplicity 1
 C         1.569433         0.567572        -0.049078
 C         0.070101         0.252891        -0.037910
 C        -1.050508         0.653922        -0.704106
 C        -2.127017        -0.193873        -0.257722
 C        -1.818076        -0.620733         1.276573
 C        -0.509686        -1.067361         0.594490
 O         0.337815        -2.067496         1.030837
 C        -1.234018        -1.464629        -0.771831
 O        -1.920057        -2.744186        -0.719095
 H         2.091415        -0.057089        -0.853895
 H         1.639535         1.612158        -0.297002
 H         2.192804         0.276702         0.771430
 H        -1.134473         1.424184        -1.496934
 H        -3.142789        -0.195362        -0.638653
 H        -1.735036         0.275380         1.985950
 H        -2.471537        -1.401421         1.717930
 H         0.254710        -2.471400         1.905155
 H        -0.886265        -1.298133        -1.813030
 H        -1.260330        -3.572021        -0.747911
