19
Iteration:   296charge 0 multiplicity 1
 C         1.437673         0.800494         0.233021
 C         0.080278         0.229199        -0.004774
 C        -1.057412         0.776278        -0.318312
 C        -2.162820        -0.252515         0.021874
 C        -1.445518        -0.988595         1.284144
 C        -0.352163        -1.211036         0.302423
 O         0.678997        -2.218340         0.608485
 C        -1.536712        -1.434902        -0.829579
 O        -2.329371        -2.549642        -0.896259
 H         1.598523         1.670511         0.910770
 H         2.254540         0.132231         0.639583
 H         2.074619         1.107006        -0.644386
 H        -1.253091         1.843396        -0.397665
 H        -3.228151         0.017759        -0.009067
 H        -1.277459        -0.203405         2.059857
 H        -1.949730        -1.905935         1.583723
 H         0.769302        -1.924583         1.529187
 H        -1.329444        -1.091582        -1.875756
 H        -1.781432        -3.257195        -1.353858
