19
Iteration:  2560
 C         1.401830         0.681680        -0.054043
 C         0.012037         0.253214         0.095042
 C        -1.121161         0.880806        -0.137153
 C        -2.136512        -0.257866         0.044502
 C        -1.610218        -0.934153         1.339861
 C        -0.337388        -1.274831         0.462136
 O         0.580144        -2.210232         0.822447
 C        -1.366547        -1.376539        -0.740658
 O        -2.101873        -2.552602        -1.134790
 H         1.689243         1.324871        -0.864846
 H         1.602822         1.283979         0.873084
 H         2.192921        -0.064800        -0.067897
 H        -1.270274         1.729521        -0.907431
 H        -3.232893        -0.185276        -0.111123
 H        -1.227396        -0.382702         2.135047
 H        -2.164597        -1.788674         1.684257
 H         0.815221        -2.663573        -0.021240
 H        -0.768943        -1.112577        -1.624873
 H        -2.355246        -2.470463        -2.086369
