19
Iteration:  3841charge 0 multiplicity 1
 C         1.502069         0.454733        -0.084303
 C         0.089635         0.166051        -0.213893
 C        -0.928508         0.620698        -1.037162
 C        -2.037939        -0.279869        -0.628211
 C        -1.856317        -0.391456         0.988973
 C        -0.540179        -1.025831         0.598040
 O         0.156796        -1.772018         1.578829
 C        -1.221658        -1.683617        -0.674553
 O        -1.893207        -2.884546        -0.421952
 H         2.002042         0.120307         0.868007
 H         2.106430        -0.054678        -0.909388
 H         1.812014         1.516452        -0.119580
 H        -0.695426         1.245086        -1.899365
 H        -3.046010        -0.207487        -1.120386
 H        -1.886900         0.521126         1.494948
 H        -2.440840        -1.240970         1.452679
 H         1.149985        -1.716471         1.578882
 H        -0.491134        -1.766099        -1.575574
 H        -1.788447        -3.103973         0.473528
