19
Iteration:  4045charge 0 multiplicity 1
 C         1.573298         0.596672        -0.046296
 C         0.204285         0.031967        -0.317986
 C        -0.729234         0.373759        -1.171635
 C        -1.983083        -0.402327        -0.685538
 C        -1.905610        -0.308052         0.856354
 C        -0.571273        -0.981596         0.566450
 O         0.162228        -1.584165         1.721191
 C        -1.355669        -1.700903        -0.569784
 O        -2.024809        -2.884750        -0.221841
 H         1.806222         0.782893         1.053922
 H         2.445384         0.015646        -0.427086
 H         1.639460         1.522068        -0.619794
 H        -0.813279         1.268639        -1.701077
 H        -2.893476        -0.228304        -1.325165
 H        -1.920274         0.591485         1.395335
 H        -2.734004        -1.049117         1.267745
 H         0.869938        -2.270506         1.309397
 H        -0.823973        -1.812749        -1.628073
 H        -1.539940        -3.492182        -0.736355
