19
Iteration:  2470charge 0 multiplicity 1
 C         1.534728         0.627057         0.246446
 C         0.090986         0.252334         0.012282
 C        -1.163222         0.780058        -0.306798
 C        -2.207277        -0.270216         0.065422
 C        -1.660495        -0.886195         1.351069
 C        -0.429568        -1.127971         0.338211
 O         0.564792        -2.210715         0.493007
 C        -1.438914        -1.363775        -0.851992
 O        -2.001794        -2.605827        -0.836258
 H         1.980428         1.337447        -0.425230
 H         1.641802         0.911787         1.299873
 H         2.178984        -0.305066         0.110513
 H        -1.409685         1.606475        -0.880805
 H        -3.236453        -0.158041        -0.187773
 H        -1.334051        -0.308330         2.238065
 H        -2.298127        -1.636482         1.748595
 H         1.432081        -1.817935         0.883487
 H        -0.990585        -0.955305        -1.759149
 H        -2.648498        -2.616213        -1.680805
