19
Iteration:  4121
 C         1.617281         0.383226        -0.147181
 C         0.188307         0.076052        -0.208524
 C        -0.817366         0.545540        -1.089538
 C        -2.006528        -0.318495        -0.726847
 C        -1.987558        -0.376192         0.805164
 C        -0.604661        -0.952269         0.592229
 O         0.060827        -1.511343         1.709789
 C        -1.236541        -1.686067        -0.591903
 O        -1.811922        -2.930364        -0.149358
 H         2.234561        -0.602980        -0.182009
 H         1.897671         0.910217        -1.083475
 H         1.962738         0.970377         0.748104
 H        -0.672948         0.671401        -2.112298
 H        -3.030576        -0.400464        -1.188886
 H        -2.252753         0.483736         1.319124
 H        -2.749299        -1.244979         0.891210
 H         0.949268        -1.549014         1.581874
 H        -0.614571        -1.844685        -1.546430
 H        -2.507025        -3.239695        -0.829777
