19
Iteration:  2828
 C         1.467999         0.709324        -0.007216
 C         0.083781         0.153372         0.050460
 C        -0.998440         0.827940        -0.294123
 C        -2.188044        -0.138097         0.024179
 C        -1.720372        -0.926348         1.268639
 C        -0.401909        -1.185471         0.440296
 O         0.446866        -2.196415         0.858093
 C        -1.472363        -1.398169        -0.826750
 O        -1.913223        -2.684829        -1.083355
 H         1.911151         0.567952        -1.020517
 H         1.381173         1.826984         0.116921
 H         2.233516         0.363102         0.780413
 H        -1.065306         1.860007        -0.435134
 H        -3.221591         0.199827        -0.053109
 H        -1.638289        -0.367705         2.259704
 H        -2.347377        -1.767230         1.426735
 H         1.310140        -1.840366         0.911752
 H        -1.026917        -1.110130        -1.842510
 H        -2.283874        -3.019541        -0.297216
