19
Iteration:  4755charge 0 multiplicity 1
 C         1.598921         0.557777        -0.075512
 C         0.209799         0.012139        -0.311894
 C        -0.626196         0.220880        -1.441786
 C        -1.823674        -0.654742        -0.947744
 C        -1.958905        -0.208407         0.499785
 C        -0.540323        -0.933552         0.613029
 O        -0.006598        -1.182636         1.973495
 C        -1.160048        -1.990454        -0.393307
 O        -2.233428        -2.847958        -0.013077
 H         2.116582         0.208276         0.871601
 H         2.343172         0.172632        -0.838352
 H         1.645249         1.670750        -0.242490
 H        -0.594784         0.813396        -2.421810
 H        -2.711044        -0.935838        -1.596172
 H        -1.988824         0.959541         0.691327
 H        -2.740802        -0.649040         1.096067
 H         0.900027        -1.104042         2.039870
 H        -0.388655        -2.503851        -1.039857
 H        -2.116701        -3.041880         0.920056
