19
Iteration:  2251charge 0 multiplicity 1
 C         1.474443         0.757818         0.133082
 C         0.078479         0.200014        -0.093318
 C        -1.046640         0.795680        -0.376950
 C        -2.116787        -0.242483        -0.072370
 C        -1.636894        -0.963881         1.324081
 C        -0.400151        -1.220969         0.326948
 O         0.565720        -2.113678         0.768347
 C        -1.447340        -1.391507        -0.858477
 O        -2.055575        -2.628692        -0.754109
 H         2.116552         0.098166         0.722134
 H         1.918559         0.896928        -0.828115
 H         1.300147         1.706240         0.648780
 H        -1.172642         1.934616        -0.215685
 H        -3.190166         0.099989        -0.213054
 H        -1.287116        -0.385373         2.151337
 H        -2.026617        -1.866442         1.682141
 H         0.016004        -2.865014         0.795273
 H        -1.168459        -1.076135        -1.888662
 H        -2.482878        -2.748957        -1.561790
