19
Iteration:   227
 C         1.422362         0.602801        -0.031124
 C         0.055758         0.259893         0.145318
 C        -1.139235         0.925675        -0.104215
 C        -2.219945        -0.199215         0.040487
 C        -1.622045        -0.947517         1.309713
 C        -0.375084        -1.169704         0.377263
 O         0.541002        -2.183037         0.639790
 C        -1.434882        -1.336487        -0.833379
 O        -1.943574        -2.668294        -0.876996
 H         1.740778         1.553520        -0.447765
 H         2.010845         0.542441         0.938520
 H         2.047192        -0.163134        -0.635396
 H        -1.165457         1.852970        -0.611819
 H        -3.261909         0.066649        -0.038924
 H        -1.395422        -0.253199         2.168923
 H        -2.127258        -1.905841         1.646794
 H         0.604356        -2.651283        -0.265879
 H        -1.008903        -1.036152        -1.839202
 H        -2.206452        -2.874860        -1.840691
