19
Iteration:  4535
 C         1.641702         0.507063        -0.018482
 C         0.175763         0.215714        -0.342950
 C        -0.687268         0.366246        -1.374956
 C        -1.871784        -0.586795        -0.908748
 C        -2.060952        -0.193959         0.626591
 C        -0.574975        -0.866484         0.605130
 O        -0.106354        -1.569327         1.687192
 C        -1.149234        -1.860225        -0.476504
 O        -1.980239        -2.873769         0.130525
 H         1.965424         0.153036         0.967619
 H         2.268980        -0.044213        -0.775728
 H         1.974925         1.592118        -0.098809
 H        -0.776068         1.065270        -2.180333
 H        -2.783906        -0.679818        -1.459602
 H        -2.058327         0.892676         0.782190
 H        -2.762684        -0.787887         1.192800
 H         0.889781        -1.452164         1.627166
 H        -0.447402        -2.249288        -1.283129
 H        -1.545154        -3.238514         0.977167
