19
Iteration:  3891
 C         1.584015         0.449695        -0.175420
 C         0.159714         0.206586        -0.127090
 C        -0.804731         0.645334        -0.948005
 C        -2.062589        -0.322381        -0.680885
 C        -2.025094        -0.446829         0.883979
 C        -0.555755        -1.011882         0.596164
 O         0.194805        -1.654182         1.612627
 C        -1.244395        -1.716736        -0.655595
 O        -1.942049        -2.929639        -0.361574
 H         2.161176        -0.356340        -0.660737
 H         1.815278         1.321309        -0.771375
 H         2.044478         0.620834         0.794822
 H        -0.711307         1.323710        -1.886640
 H        -2.962092        -0.275522        -1.230660
 H        -1.979035         0.483780         1.537318
 H        -2.700843        -1.233367         1.265282
 H         1.120972        -1.948663         1.377499
 H        -0.718069        -1.821832        -1.566683
 H        -1.701944        -3.276992         0.554278
