19
Iteration:   841charge 0 multiplicity 1
 C         1.508995         0.618194        -0.043024
 C         0.075695         0.189091         0.070959
 C        -0.982564         0.870462        -0.311047
 C        -2.155313        -0.142278        -0.227452
 C        -1.808776        -0.769876         1.219432
 C        -0.419486        -1.138495         0.444344
 O         0.455599        -2.089293         0.723746
 C        -1.410920        -1.436686        -0.839167
 O        -1.824736        -2.798460        -0.559635
 H         1.736805         0.175415        -1.000025
 H         1.392049         1.735775         0.115866
 H         2.154587         0.100391         0.701476
 H        -1.100327         1.844672        -0.813579
 H        -3.169711         0.134710        -0.458537
 H        -1.779218        -0.153273         2.062496
 H        -2.395911        -1.673835         1.492409
 H         0.201224        -2.936601         0.362000
 H        -0.991015        -1.284704        -1.854677
 H        -2.779719        -2.888265        -0.872416
