19
Iteration:   286charge 0 multiplicity 1
 C         1.521967         0.820651         0.218441
 C         0.119517         0.243570         0.111216
 C        -1.096353         0.807478        -0.326267
 C        -2.112574        -0.267816         0.007436
 C        -1.525311        -1.027762         1.255370
 C        -0.275049        -1.225353         0.282317
 O         0.683080        -2.142275         0.616091
 C        -1.559806        -1.394189        -0.904526
 O        -2.376354        -2.605898        -0.835891
 H         1.461837         1.809951         0.792796
 H         2.068230         0.027189         0.763539
 H         1.778185         0.948977        -0.831880
 H        -1.197184         1.850339        -0.557772
 H        -3.151687         0.093199        -0.072403
 H        -1.206244        -0.530413         2.176868
 H        -2.048461        -1.937462         1.504322
 H         0.810386        -2.263806         1.539983
 H        -1.176254        -1.149412        -1.907143
 H        -2.079827        -3.223502        -1.510953
