19
Iteration:  3236charge 0 multiplicity 1
 C         1.417962         0.720742         0.055441
 C         0.059596         0.193599        -0.044929
 C        -1.025684         0.805512        -0.576765
 C        -1.995656        -0.221173        -0.263076
 C        -1.643721        -0.755790         1.175577
 C        -0.421505        -1.179468         0.435098
 O         0.498970        -2.013683         1.051702
 C        -1.343787        -1.551362        -0.845676
 O        -2.152981        -2.725502        -0.669155
 H         1.984833         0.483190         0.928109
 H         1.996047         0.239069        -0.748930
 H         1.342226         1.792883        -0.130374
 H        -1.045512         1.913180        -0.867078
 H        -3.068548        -0.310221        -0.465985
 H        -1.500404        -0.082898         2.022231
 H        -2.254135        -1.617265         1.586409
 H        -0.132898        -2.731420         1.296579
 H        -0.835012        -1.436642        -1.742074
 H        -1.550732        -3.428592        -1.102447
