19
Iteration:  1644
 C         1.529222         0.504173        -0.132742
 C         0.096252         0.208277        -0.057944
 C        -1.039905         0.787366        -0.525722
 C        -2.070163        -0.320340        -0.286378
 C        -1.857455        -0.776742         1.170115
 C        -0.438176        -1.081027         0.602513
 O         0.484851        -1.978242         1.236655
 C        -1.312437        -1.498367        -0.796071
 O        -2.113166        -2.641526        -0.833344
 H         2.184378        -0.128591         0.463254
 H         1.864478         0.446985        -1.257220
 H         1.823337         1.500922         0.215192
 H        -1.175944         1.676888        -1.135356
 H        -3.052705        -0.076343        -0.708545
 H        -1.833991        -0.207826         2.056291
 H        -2.426322        -1.695272         1.369402
 H         1.189782        -1.481818         1.798512
 H        -0.738891        -1.446821        -1.688278
 H        -1.639483        -3.413589        -1.120421
