19
Iteration:  3559
 C         1.511505         0.614805         0.028911
 C         0.091603         0.191485        -0.097743
 C        -0.878775         0.681816        -0.823469
 C        -2.115784        -0.295874        -0.509091
 C        -1.882474        -0.589757         1.031051
 C        -0.503885        -1.077677         0.554864
 O         0.440196        -1.924508         1.221219
 C        -1.231287        -1.589546        -0.701958
 O        -2.035176        -2.813408        -0.460307
 H         1.599962         1.523860        -0.573178
 H         1.667829         0.796206         1.061273
 H         2.063086        -0.250745        -0.340021
 H        -0.900937         1.672037        -1.290556
 H        -3.063616        -0.214928        -1.066167
 H        -1.872431         0.276696         1.663890
 H        -2.492780        -1.492702         1.417971
 H         0.483267        -1.662132         2.093421
 H        -0.578782        -1.752008        -1.491997
 H        -2.235840        -3.179935        -1.304879
