19
Iteration:   993charge 0 multiplicity 1
 C         1.504867         0.733905         0.157141
 C         0.123701         0.188356        -0.127047
 C        -1.032080         0.794059        -0.585734
 C        -2.122798        -0.189889        -0.248386
 C        -1.696129        -0.722870         1.261424
 C        -0.485298        -1.151861         0.418888
 O         0.448127        -2.136392         0.832134
 C        -1.401825        -1.501797        -0.767462
 O        -2.033013        -2.801433        -0.651019
 H         1.604047         0.878935         1.263039
 H         2.181050        -0.021200        -0.193255
 H         1.761791         1.526451        -0.560154
 H        -1.088122         1.850095        -0.762631
 H        -3.084540         0.278589        -0.476531
 H        -1.507196        -0.027128         2.027984
 H        -2.351914        -1.567621         1.569399
 H         0.479277        -2.046332         1.757614
 H        -0.988480        -1.234885        -1.746826
 H        -1.299225        -3.305109        -0.968115
