19
Iteration:   910charge 0 multiplicity 1
 C         1.532188         0.627267        -0.160684
 C         0.075752         0.148156         0.003163
 C        -1.045622         0.806019        -0.386617
 C        -2.163481        -0.218565        -0.156919
 C        -1.792936        -0.795016         1.242998
 C        -0.491139        -1.199951         0.495005
 O         0.617185        -1.982827         1.112454
 C        -1.393812        -1.469831        -0.816912
 O        -2.049767        -2.691240        -0.860056
 H         1.509780         1.512705        -0.728407
 H         2.035826         0.730097         0.935991
 H         2.197292         0.067634        -0.803405
 H        -1.141294         1.806053        -0.739960
 H        -3.187720         0.165579        -0.417879
 H        -1.575565        -0.087973         2.130005
 H        -2.401058        -1.640304         1.606993
 H         0.420719        -2.953834         0.871083
 H        -0.883238        -1.206051        -1.751609
 H        -1.665989        -3.248096        -1.648983
