19
Iteration:   726
 C         1.479125         0.685540        -0.068803
 C         0.087433         0.273432         0.040103
 C        -1.114580         0.949456        -0.259906
 C        -2.140181        -0.194606        -0.100005
 C        -1.664650        -0.950648         1.223826
 C        -0.400415        -1.212401         0.350324
 O         0.516691        -2.223242         0.696743
 C        -1.354407        -1.441061        -0.841922
 O        -2.067475        -2.622016        -0.717718
 H         2.023602         0.143260         0.786081
 H         1.911237         0.340977        -0.976184
 H         1.565993         1.776898         0.048728
 H        -1.334800         1.965358        -0.506507
 H        -3.189078         0.017107        -0.398240
 H        -1.448086        -0.354153         2.169176
 H        -2.302065        -1.751152         1.528087
 H         0.457536        -2.275973         1.671765
 H        -0.967334        -1.292336        -1.889091
 H        -1.574130        -3.228604        -0.113256
