19
Iteration:   636charge 0 multiplicity 1
 C         1.474741         0.652816        -0.103058
 C         0.047938         0.216396        -0.012859
 C        -1.060412         0.815928        -0.244753
 C        -2.099517        -0.309979        -0.018901
 C        -1.602293        -0.987409         1.297380
 C        -0.430282        -1.221392         0.408776
 O         0.533013        -2.088245         0.931625
 C        -1.366057        -1.408378        -0.876516
 O        -2.182529        -2.503844        -0.964007
 H         1.813430         1.548107         0.481434
 H         2.274718        -0.065446         0.194022
 H         1.805532         1.006053        -1.094600
 H        -1.420555         1.772510        -0.626408
 H        -3.122957        -0.291098        -0.327906
 H        -1.433842        -0.349272         2.201589
 H        -2.262481        -1.935795         1.522905
 H         0.893046        -1.721552         1.800856
 H        -0.931061        -1.066323        -1.840563
 H        -1.761225        -3.383205        -1.078185
