19
Iteration:    52charge 0 multiplicity 1
 C         1.417412         0.742398         0.280581
 C         0.053275         0.180990         0.149960
 C        -1.044937         0.884729        -0.194148
 C        -2.199326        -0.104541         0.013236
 C        -1.548876        -1.008247         1.226432
 C        -0.415866        -1.244466         0.281024
 O         0.606951        -2.282311         0.301521
 C        -1.443905        -1.308668        -0.860265
 O        -2.108376        -2.595088        -0.729889
 H         2.307406         0.137288         0.523861
 H         1.807410         1.251595        -0.649250
 H         1.385387         1.546674         1.161185
 H        -1.071646         1.994306        -0.307202
 H        -3.284118         0.034324        -0.065630
 H        -1.396517        -0.471685         2.199493
 H        -2.132594        -1.987356         1.450148
 H         0.516588        -2.717336         1.206090
 H        -1.172800        -1.057039        -1.932429
 H        -1.711422        -3.266281        -1.391025
