19
Iteration:  4934
 C         1.640398         0.528147        -0.042021
 C         0.272859        -0.010230        -0.366356
 C        -0.553639        -0.025742        -1.422760
 C        -1.880966        -0.630163        -1.003258
 C        -1.987167        -0.135619         0.465450
 C        -0.556413        -0.711950         0.594217
 O        -0.149041        -1.139564         1.885076
 C        -1.193515        -1.929158        -0.381809
 O        -2.003907        -3.014920         0.146679
 H         1.528198         1.665934        -0.105966
 H         2.019441         0.305364         0.968279
 H         2.380266         0.306954        -0.852497
 H        -0.315696         0.294479        -2.456567
 H        -2.705910        -0.710684        -1.670735
 H        -2.056511         0.930632         0.590122
 H        -2.742976        -0.724030         1.172875
 H        -0.193155        -0.367118         2.405502
 H        -0.434303        -2.364755        -1.093624
 H        -2.897615        -2.753155         0.571501
