19
Iteration:  2171charge 0 multiplicity 1
 C         1.508751         0.645902         0.089333
 C         0.081173         0.242912        -0.033799
 C        -1.027671         0.942733        -0.284916
 C        -2.182939        -0.119245        -0.147208
 C        -1.777792        -0.928059         1.228319
 C        -0.438242        -1.209450         0.308683
 O         0.612195        -2.145437         0.745675
 C        -1.444994        -1.355165        -0.888825
 O        -1.948333        -2.760276        -0.615838
 H         2.096029         0.409569        -0.847959
 H         1.590922         1.686358         0.379711
 H         2.045624         0.132323         0.872364
 H        -1.067225         1.929905        -0.694627
 H        -3.207929         0.136630        -0.388277
 H        -1.788037        -0.368126         2.194275
 H        -2.312120        -1.923290         1.279361
 H         0.112641        -2.834605         1.142058
 H        -1.054824        -1.152413        -1.907089
 H        -2.605489        -3.025116        -1.244841
