19
Iteration:  2593
 C         1.535487         0.558854        -0.043754
 C         0.074212         0.194253         0.113150
 C        -1.120800         0.851215        -0.101552
 C        -2.216837        -0.250478         0.116801
 C        -1.690994        -0.942594         1.350725
 C        -0.405799        -1.199113         0.368545
 O         0.637036        -2.013825         0.747604
 C        -1.518446        -1.320580        -0.827028
 O        -1.988653        -2.659181        -1.117773
 H         1.681783         1.433436        -0.649953
 H         1.976459         0.848072         0.951633
 H         2.109756        -0.324581        -0.319186
 H        -1.341652         1.914363        -0.378234
 H        -3.256633         0.096758        -0.097327
 H        -1.311210        -0.362439         2.137962
 H        -2.304708        -1.766865         1.738112
 H         0.438630        -3.045075         0.782413
 H        -1.045208        -0.861832        -1.690063
 H        -2.159519        -2.725130        -2.158000
