19
Iteration:  1842
 C         1.500122         0.607589        -0.231533
 C         0.111691         0.183879         0.127600
 C        -0.995497         0.836542        -0.293516
 C        -2.082620        -0.240902        -0.337102
 C        -1.992653        -0.723504         1.223922
 C        -0.456282        -1.184071         0.492750
 O         0.551998        -1.983765         1.035007
 C        -1.273390        -1.563585        -0.768879
 O        -1.982816        -2.736390        -0.718862
 H         1.569553         0.844706        -1.275502
 H         1.919333         1.622911         0.123885
 H         2.247005        -0.138917        -0.027155
 H        -0.932804         1.848278        -0.709630
 H        -3.102124        -0.052356        -0.768638
 H        -2.019563         0.100636         1.960681
 H        -2.693449        -1.466101         1.534027
 H         0.299280        -2.872470         0.967176
 H        -0.755285        -1.416620        -1.739109
 H        -2.328678        -2.805593        -1.542843
