19
Iteration:   961
 C         1.528500         0.648316         0.049217
 C         0.058826         0.250182        -0.008028
 C        -1.100783         0.828018        -0.425169
 C        -2.077523        -0.326685        -0.318964
 C        -1.695426        -0.877112         1.188147
 C        -0.391227        -1.213596         0.404472
 O         0.642058        -1.963693         1.007479
 C        -1.326517        -1.516289        -0.856782
 O        -2.275144        -2.620796        -0.733603
 H         1.861576         1.505173         0.725725
 H         1.958170        -0.271097         0.404675
 H         1.839739         1.001003        -0.963877
 H        -1.181591         1.716027        -1.012780
 H        -3.123950        -0.130077        -0.544410
 H        -1.568447        -0.172051         1.941338
 H        -2.283127        -1.721244         1.582127
 H         0.337526        -2.151087         1.948530
 H        -0.915870        -1.370647        -1.897705
 H        -1.708360        -3.427982        -0.840719
