19
Iteration:  2138charge 0 multiplicity 1
 C         1.513923         0.658785        -0.042628
 C         0.094524         0.201734         0.033991
 C        -1.086315         0.850175        -0.250213
 C        -2.120461        -0.303269        -0.129109
 C        -1.687289        -0.783009         1.359588
 C        -0.442477        -1.145310         0.367219
 O         0.521257        -2.070756         0.903573
 C        -1.364699        -1.402491        -0.858231
 O        -2.031650        -2.762333        -0.895187
 H         1.834291         1.029885        -1.052152
 H         1.734641         1.505392         0.614099
 H         2.164775        -0.159826         0.223400
 H        -1.128185         1.769196        -0.890596
 H        -3.126579        -0.028548        -0.398231
 H        -1.523181        -0.014150         2.124960
 H        -2.042031        -1.731665         1.814742
 H         0.059699        -2.960222         1.050611
 H        -0.868743        -1.160740        -1.819808
 H        -2.780265        -2.706721        -1.445027
