19
Iteration:  3401
 C         1.519897         0.599563        -0.088153
 C         0.098042         0.221643        -0.125994
 C        -1.050302         0.780116        -0.585902
 C        -2.065639        -0.239977        -0.339215
 C        -1.808221        -0.688341         1.123750
 C        -0.444435        -1.071562         0.486018
 O         0.392811        -1.951423         1.208821
 C        -1.212915        -1.531020        -0.725570
 O        -2.041490        -2.834208        -0.726880
 H         1.636696         1.604192         0.355882
 H         2.175269         0.042450         0.618843
 H         2.102047         0.637186        -0.997481
 H        -1.107162         1.539560        -1.361521
 H        -3.060674        -0.127424        -0.863614
 H        -1.826175         0.004711         2.031157
 H        -2.192132        -1.644478         1.392351
 H        -0.121117        -2.495864         1.867157
 H        -0.817927        -1.430359        -1.688324
 H        -1.809174        -3.266913         0.117099
