19
Iteration:   266charge 0 multiplicity 1
 C         1.520713         0.770368         0.101310
 C         0.136216         0.225162         0.089380
 C        -1.116745         0.884906        -0.128760
 C        -2.097093        -0.267825        -0.076240
 C        -1.655335        -1.084498         1.193205
 C        -0.334055        -1.210203         0.361317
 O         0.757461        -2.075893         0.592289
 C        -1.449472        -1.457992        -0.861633
 O        -2.332725        -2.566245        -0.763022
 H         1.515309         1.888420         0.472080
 H         2.052883         0.256105         0.908095
 H         1.970770         0.667326        -0.856998
 H        -1.107376         1.884678        -0.523612
 H        -3.166413         0.025980        -0.233192
 H        -1.667502        -0.495737         2.066247
 H        -2.202144        -2.009437         1.280393
 H         0.389551        -2.826731         1.058691
 H        -1.184213        -1.296232        -1.890344
 H        -2.402852        -3.000647        -1.575087
