19
Iteration:  4845
 C         1.623146         0.331941        -0.083468
 C         0.246852        -0.039123        -0.415952
 C        -0.633380         0.132033        -1.431789
 C        -1.870770        -0.516455        -0.969955
 C        -2.071767        -0.129452         0.470148
 C        -0.629778        -0.750847         0.646846
 O        -0.211539        -1.133171         1.911462
 C        -1.147785        -1.871497        -0.432597
 O        -1.855866        -2.871863         0.241076
 H         2.342644        -0.098517        -0.855786
 H         1.820858         1.389017         0.112274
 H         1.780684        -0.136070         0.927649
 H        -0.580380         0.529711        -2.423161
 H        -2.784525        -0.567985        -1.569856
 H        -2.112950         0.934455         0.651268
 H        -2.826580        -0.822605         0.979484
 H         0.506524        -1.718107         1.811311
 H        -0.353923        -2.388961        -1.044814
 H        -1.886884        -3.759386        -0.259041
