19
Iteration:  2148charge 0 multiplicity 1
 C         1.523213         0.653611        -0.007068
 C         0.092156         0.275766         0.053717
 C        -1.050058         0.836740        -0.285241
 C        -2.133221        -0.158973        -0.090688
 C        -1.634584        -0.848871         1.225574
 C        -0.398221        -1.198211         0.378101
 O         0.493093        -2.040028         0.848075
 C        -1.421050        -1.513035        -0.825487
 O        -1.992341        -2.780389        -0.842148
 H         1.825550         0.806985        -1.061053
 H         1.686261         1.563996         0.636912
 H         2.225075        -0.067887         0.403567
 H        -1.332045         1.919147        -0.545639
 H        -3.165693         0.077477        -0.244657
 H        -1.619486        -0.076059         2.045801
 H        -2.360548        -1.705965         1.476536
 H        -0.080935        -2.857919         1.106041
 H        -1.036728        -1.206834        -1.815844
 H        -2.840337        -2.758920        -1.362782
