19
Iteration:   616charge 0 multiplicity 1
 C         1.537215         0.752512        -0.065913
 C         0.095276         0.242931         0.073541
 C        -1.026196         0.831137        -0.189154
 C        -2.154486        -0.273841        -0.158169
 C        -1.724844        -0.977124         1.164099
 C        -0.298911        -1.169847         0.449535
 O         0.691476        -2.117425         0.870103
 C        -1.382748        -1.480439        -0.819751
 O        -2.374766        -2.596508        -0.874291
 H         1.736563         1.794661         0.387281
 H         2.300194         0.074487         0.309204
 H         1.867132         0.935956        -1.095688
 H        -1.340806         1.848954        -0.443299
 H        -3.172926         0.021218        -0.394108
 H        -1.821044        -0.361347         2.054459
 H        -2.148393        -2.000738         1.170691
 H         0.713949        -2.080456         1.868750
 H        -0.751208        -1.374909        -1.748376
 H        -1.960204        -3.403911        -1.372403
