19
Iteration:  1040
 C         1.534240         0.755188         0.075750
 C         0.134213         0.226770        -0.032989
 C        -1.020123         0.903841        -0.526324
 C        -2.077369        -0.237007        -0.339897
 C        -1.828441        -0.723027         1.203004
 C        -0.440230        -1.205364         0.405639
 O         0.355312        -2.263395         0.779277
 C        -1.303527        -1.537227        -0.755504
 O        -2.010254        -2.719310        -0.570569
 H         1.980710         0.115475         0.783402
 H         2.068971         0.895274        -0.951405
 H         1.383321         1.763259         0.407592
 H        -1.246245         1.973013        -0.631848
 H        -3.119186        -0.230560        -0.733370
 H        -1.689516         0.039259         1.990899
 H        -2.416057        -1.506583         1.578581
 H         0.948352        -2.001018         1.544908
 H        -0.851151        -1.362149        -1.747205
 H        -1.531321        -3.038227         0.174086
