19
Iteration:  3917
 C         1.533706         0.555490        -0.120103
 C         0.151990         0.102703        -0.295489
 C        -0.873359         0.504969        -1.047641
 C        -2.053841        -0.385973        -0.645374
 C        -1.851095        -0.306243         0.973108
 C        -0.509823        -0.942724         0.629205
 O         0.046142        -1.741287         1.621997
 C        -1.157850        -1.732571        -0.618129
 O        -1.931385        -2.849754        -0.404306
 H         2.137814         0.335165        -1.050241
 H         1.734669         1.652749         0.025272
 H         2.043457         0.095857         0.726164
 H        -0.907167         1.217814        -1.822886
 H        -3.103140        -0.358448        -1.090220
 H        -1.720976         0.590683         1.526425
 H        -2.583566        -1.022272         1.515448
 H         0.842122        -2.222560         1.394454
 H        -0.485894        -1.852606        -1.488468
 H        -1.645159        -3.387920         0.416117
