19
Iteration:  3020
 C         1.470753         0.653804         0.132106
 C         0.064854         0.250245        -0.078136
 C        -1.106124         0.855376        -0.442527
 C        -2.104623        -0.280031        -0.247365
 C        -1.657923        -0.849312         1.285095
 C        -0.382027        -1.143790         0.509367
 O         0.642075        -2.050154         0.848594
 C        -1.320143        -1.558208        -0.730126
 O        -2.231596        -2.624357        -0.869907
 H         1.927260        -0.362485         0.352509
 H         1.869077         1.128229        -0.837003
 H         1.514747         1.431370         0.926531
 H        -1.159542         1.788724        -0.899043
 H        -3.104238        -0.109419        -0.589253
 H        -1.593579        -0.126041         2.072589
 H        -2.210983        -1.770185         1.577987
 H         0.283761        -2.430744         1.753648
 H        -0.852883        -1.354335        -1.716178
 H        -1.779081        -3.399755        -1.326290
