19
Iteration:  2939
 C         1.503423         0.662713         0.063677
 C         0.071433         0.273408         0.076152
 C        -1.113105         0.910675        -0.317002
 C        -2.182914        -0.252655        -0.152326
 C        -1.662936        -0.755022         1.309205
 C        -0.462030        -1.216686         0.438786
 O         0.359308        -2.311380         0.776472
 C        -1.375374        -1.375613        -0.822733
 O        -1.881479        -2.724327        -0.926918
 H         1.694921         1.440417         0.779989
 H         2.204137        -0.183362         0.090409
 H         1.672426         1.246829        -0.865536
 H        -1.203136         1.777270        -1.110230
 H        -3.227215        -0.108737        -0.595261
 H        -1.520587         0.056046         2.049930
 H        -2.234654        -1.450346         1.879347
 H         1.251810        -1.870321         1.061493
 H        -0.910155        -0.983881        -1.836943
 H        -1.682477        -3.193267        -0.082041
