19
Iteration:  3125
 C         1.487525         0.695205        -0.024726
 C         0.075612         0.223143         0.024573
 C        -1.037729         0.864936        -0.453463
 C        -2.107274        -0.100101        -0.112839
 C        -1.789946        -0.722410         1.154587
 C        -0.524059        -1.136928         0.426933
 O         0.402068        -2.125964         0.934262
 C        -1.325027        -1.508093        -0.819531
 O        -1.786392        -2.843228        -0.681799
 H         1.726020         1.376897        -0.772345
 H         1.935315         1.091095         0.869664
 H         2.066539        -0.211588        -0.241383
 H        -1.139239         1.647593        -1.134069
 H        -3.135439         0.102154        -0.282403
 H        -1.739990        -0.072154         2.003048
 H        -2.376895        -1.675159         1.367793
 H        -0.164443        -2.972131         0.930236
 H        -0.827302        -1.453540        -1.736185
 H        -2.494793        -2.979744        -1.259589
