19
Iteration:  3987
 C         1.589008         0.619417         0.085688
 C         0.152038         0.170180        -0.270237
 C        -0.877260         0.466910        -1.095436
 C        -2.042779        -0.452423        -0.768926
 C        -1.942794        -0.352886         0.786863
 C        -0.491850        -0.973314         0.511452
 O         0.265485        -1.786817         1.576680
 C        -1.155299        -1.798529        -0.641212
 O        -2.139577        -2.750857        -0.146004
 H         1.663029         1.709349         0.241160
 H         1.870473         0.109187         1.021524
 H         2.333623         0.326841        -0.779279
 H        -0.934858         1.345906        -1.841303
 H        -2.891982        -0.442810        -1.403987
 H        -1.948155         0.696323         1.193192
 H        -2.543318        -1.025740         1.296207
 H         1.076549        -1.857803         1.167796
 H        -0.622174        -2.119198        -1.648484
 H        -1.764781        -3.154905         0.710643
