19
Iteration:  2168
 C         1.519612         0.651817         0.076532
 C         0.058407         0.240331        -0.028245
 C        -1.025824         0.939022        -0.297133
 C        -2.179922        -0.116220        -0.132918
 C        -1.779580        -0.910128         1.202609
 C        -0.455525        -1.187246         0.313328
 O         0.612251        -2.152927         0.769709
 C        -1.439639        -1.358903        -0.892682
 O        -1.947903        -2.784402        -0.630401
 H         2.064142         0.470824        -0.832009
 H         1.659284         1.746670         0.429373
 H         2.129440         0.078514         0.808886
 H        -1.048952         2.047825        -0.644425
 H        -3.213732         0.170469        -0.277004
 H        -1.684232        -0.444858         2.267772
 H        -2.235673        -1.953669         1.251188
 H         0.165268        -2.900250         1.206172
 H        -1.057640        -1.171594        -1.897434
 H        -2.728692        -3.016107        -1.319234
