19
Iteration:   681charge 0 multiplicity 1
 C         1.587045         0.570933        -0.185178
 C         0.031310         0.269474         0.111473
 C        -1.074863         0.862686        -0.206504
 C        -2.173355        -0.218510        -0.033348
 C        -1.804967        -0.803214         1.397542
 C        -0.521414        -1.128583         0.522237
 O         0.380819        -2.163072         0.618038
 C        -1.319172        -1.386713        -0.773979
 O        -1.895574        -2.747841        -0.923289
 H         2.266616         1.003654         0.658022
 H         2.135724        -0.348618        -0.441690
 H         1.597859         1.279943        -1.038023
 H        -1.256062         1.875790        -0.669372
 H        -3.215954         0.034833        -0.177741
 H        -1.732431        -0.084711         2.274070
 H        -2.362738        -1.720710         1.820667
 H         1.009259        -1.931861         1.366578
 H        -0.810063        -1.165013        -1.732936
 H        -1.062407        -3.231391        -1.049121
