19
Iteration:   756
 C         1.496060         0.749349         0.085435
 C         0.148383         0.195311        -0.043941
 C        -1.037403         0.815779        -0.437040
 C        -2.187068        -0.290454        -0.048967
 C        -1.564546        -0.786979         1.311866
 C        -0.287075        -1.141748         0.469044
 O         0.649113        -2.119082         0.743213
 C        -1.540851        -1.499719        -0.809584
 O        -2.305675        -2.705971        -0.924583
 H         2.231913         0.234940         0.578520
 H         2.071275         0.985810        -0.875993
 H         1.424228         1.639547         0.662554
 H        -1.324470         1.850204        -0.513185
 H        -3.213259         0.013969        -0.175333
 H        -1.440945         0.000263         2.115396
 H        -2.101685        -1.745825         1.710002
 H         0.540726        -2.442439         1.639891
 H        -1.269288        -1.347292        -1.825346
 H        -1.707302        -3.356177        -0.632901
