19
Iteration:  4816charge 0 multiplicity 1
 C         1.613964         0.446244        -0.122619
 C         0.223629         0.083148        -0.260568
 C        -0.587167         0.073480        -1.408980
 C        -1.864460        -0.603495        -1.024363
 C        -2.002058         0.035173         0.470737
 C        -0.643957        -0.801002         0.666093
 O        -0.154455        -1.249608         1.865000
 C        -1.236704        -1.917261        -0.415378
 O        -1.978883        -2.951357         0.173273
 H         2.288038        -0.398124        -0.363144
 H         1.887628         1.380206        -0.653360
 H         1.698898         0.509166         0.965389
 H        -0.502526         0.705327        -2.415442
 H        -2.732409        -0.819187        -1.602730
 H        -1.776278         1.079819         0.603449
 H        -2.710246        -0.510236         1.095846
 H         0.785423        -1.337051         1.792314
 H        -0.340488        -2.335722        -0.928414
 H        -1.487866        -3.705393         0.199147
