19
Iteration:   786
 C         1.427392         0.694505         0.120764
 C         0.082999         0.141177        -0.093575
 C        -1.056158         0.778813        -0.468780
 C        -2.128765        -0.254213        -0.048512
 C        -1.545966        -0.849990         1.292940
 C        -0.353505        -1.264167         0.376728
 O         0.689129        -2.009019         0.808882
 C        -1.419229        -1.499247        -0.806715
 O        -2.295397        -2.570991        -0.771654
 H         2.315392         0.077097         0.351236
 H         1.789649         1.514868        -0.649062
 H         1.362843         1.390001         1.023745
 H        -1.354120         1.590079        -1.122053
 H        -3.175683        -0.086804        -0.170545
 H        -1.235556        -0.161333         2.014139
 H        -2.170035        -1.701654         1.674028
 H         0.371842        -2.708023         1.473518
 H        -1.091415        -1.366895        -1.868663
 H        -2.153022        -3.092807        -1.678003
