19
Iteration:  3179
 C         1.431142         0.523026         0.008060
 C        -0.003938         0.245536         0.030354
 C        -1.041894         0.840666        -0.527591
 C        -2.122239        -0.163045        -0.263285
 C        -1.755190        -0.794175         1.202541
 C        -0.465916        -1.108571         0.497547
 O         0.558192        -1.979486         0.968861
 C        -1.299231        -1.470101        -0.789298
 O        -1.963114        -2.764766        -0.648778
 H         1.642260         1.455963         0.491153
 H         1.970834        -0.295830         0.483290
 H         2.029349         0.635368        -0.939154
 H        -1.102462         1.660008        -1.240353
 H        -3.119795        -0.108115        -0.640391
 H        -1.617551        -0.113198         2.003674
 H        -2.218465        -1.809030         1.381360
 H         0.050902        -2.869878         0.820555
 H        -0.749817        -1.434547        -1.698505
 H        -2.275144        -2.949228        -1.546895
