19
Iteration:  1143
 C         1.541145         0.547180        -0.248371
 C         0.153052         0.258949         0.076919
 C        -1.003216         0.832884        -0.403383
 C        -2.133811        -0.176377        -0.250723
 C        -1.802153        -0.781399         1.194127
 C        -0.481797        -1.092219         0.534331
 O         0.452516        -1.953723         1.100687
 C        -1.403292        -1.525735        -0.862467
 O        -1.948091        -2.805041        -0.687087
 H         1.865875        -0.021091        -1.183194
 H         1.618449         1.631404        -0.316189
 H         2.182088         0.092838         0.524092
 H        -1.088891         1.765550        -0.911038
 H        -3.138363         0.044117        -0.634364
 H        -1.818115        -0.072346         2.027193
 H        -2.564459        -1.630294         1.230397
 H        -0.062144        -2.584742         1.555194
 H        -0.871529        -1.354533        -1.804594
 H        -1.589483        -3.349233        -1.452308
