19
Iteration:  4279charge 0 multiplicity 1
 C         1.644303         0.647632         0.074463
 C         0.183928         0.061109        -0.259126
 C        -0.704917         0.293146        -1.265676
 C        -2.022393        -0.443221        -0.795945
 C        -2.023509        -0.250835         0.776482
 C        -0.574688        -0.957217         0.612862
 O         0.175077        -1.621854         1.586582
 C        -1.289619        -1.737393        -0.565664
 O        -2.062472        -2.917771        -0.133111
 H         1.576230         1.652091         0.551020
 H         2.263640        -0.109894         0.639657
 H         2.270709         0.732868        -0.854480
 H        -0.700594         0.993032        -2.113956
 H        -2.916272        -0.347985        -1.389713
 H        -2.086167         0.830561         1.120231
 H        -2.758941        -0.920505         1.219272
 H         1.002538        -0.993116         1.663718
 H        -0.540155        -2.044726        -1.406621
 H        -1.447396        -3.386166         0.533468
