19
Iteration:  2217charge 0 multiplicity 1
 C         1.462713         0.674954         0.212543
 C         0.065788         0.306987         0.029814
 C        -1.111657         0.941137        -0.367404
 C        -2.062184        -0.204020        -0.156070
 C        -1.664703        -0.787856         1.299723
 C        -0.376097        -1.151706         0.359637
 O         0.609313        -2.193398         0.632715
 C        -1.488879        -1.497474        -0.759464
 O        -2.081116        -2.786458        -0.714536
 H         2.131203        -0.238739         0.182294
 H         1.839854         1.417721        -0.414850
 H         1.656835         1.141543         1.181600
 H        -1.189396         1.879181        -0.903848
 H        -3.124906         0.118814        -0.358638
 H        -1.314143        -0.073937         2.001979
 H        -2.208462        -1.608597         1.723487
 H         0.333495        -2.925487         0.027894
 H        -1.256166        -1.343091        -1.845681
 H        -2.176632        -2.942776        -1.586698
