19
Iteration:  2715
 C         1.411731         0.687029         0.252074
 C         0.084190         0.249004         0.004587
 C        -1.138983         0.850730        -0.271441
 C        -2.114369        -0.286516        -0.061829
 C        -1.505576        -0.945602         1.284116
 C        -0.388165        -1.254619         0.313067
 O         0.583971        -2.181134         0.725202
 C        -1.373713        -1.433943        -0.891588
 O        -2.272928        -2.504108        -0.921857
 H         1.496334         1.125703         1.290806
 H         2.252315        -0.003092         0.074208
 H         1.561585         1.574623        -0.312934
 H        -1.318211         1.944871        -0.405657
 H        -3.189923        -0.231956        -0.329464
 H        -1.221929        -0.312526         2.064875
 H        -2.041044        -1.884147         1.609750
 H         1.454413        -1.923506         0.381681
 H        -0.858869        -1.173355        -1.812447
 H        -1.785045        -3.412120        -0.852127
