19
Iteration:  4893
 C         1.660022         0.340969        -0.182922
 C         0.162115         0.035060        -0.291901
 C        -0.629741         0.172247        -1.366663
 C        -1.825957        -0.726546        -1.028189
 C        -2.115176        -0.116451         0.425154
 C        -0.599825        -0.772470         0.713117
 O        -0.040812        -1.041911         1.907982
 C        -1.087499        -1.932293        -0.331036
 O        -1.959882        -2.932326         0.145403
 H         1.943248         0.928426        -1.050719
 H         1.801567         0.845845         0.816722
 H         2.288551        -0.574115        -0.100113
 H        -0.518599         0.749156        -2.275735
 H        -2.545790        -0.910426        -1.827765
 H        -2.168824         0.949240         0.475044
 H        -2.858115        -0.686455         0.901104
 H        -0.696029        -1.492757         2.576195
 H        -0.249826        -2.354915        -0.978515
 H        -2.714738        -2.721394        -0.471948
