19
Iteration:  1043charge 0 multiplicity 1
 C         1.535201         0.743226         0.052601
 C         0.091731         0.226639        -0.049198
 C        -0.995334         0.915333        -0.506949
 C        -2.066353        -0.240866        -0.340349
 C        -1.839200        -0.750227         1.204539
 C        -0.434080        -1.206618         0.392054
 O         0.369970        -2.237170         0.808282
 C        -1.291445        -1.528213        -0.784417
 O        -2.036241        -2.735044        -0.573203
 H         2.070768         0.173416         0.823675
 H         2.094171         0.995090        -0.978075
 H         1.440675         1.747474         0.512104
 H        -1.089448         1.997880        -0.583449
 H        -3.101510        -0.135477        -0.637496
 H        -1.693678         0.043957         2.012470
 H        -2.488642        -1.622623         1.502566
 H         0.942802        -1.933134         1.583343
 H        -0.905732        -1.375834        -1.806218
 H        -1.582624        -3.124748         0.299742
