19
Iteration:  1736charge 0 multiplicity 1
 C         1.504239         0.701305         0.210890
 C         0.090895         0.230006         0.031900
 C        -0.945241         0.740306        -0.634886
 C        -2.134818        -0.264560        -0.339141
 C        -1.781531        -0.757775         1.124923
 C        -0.408733        -1.107755         0.384886
 O         0.476870        -2.152842         0.753496
 C        -1.328101        -1.495156        -0.794858
 O        -2.131971        -2.664587        -0.481649
 H         1.544273         1.779023         0.686887
 H         2.024927        -0.050750         0.691427
 H         1.974572         0.818122        -0.788273
 H        -1.126925         1.665598        -1.224264
 H        -3.154494        -0.199941        -0.766566
 H        -1.464165        -0.136968         2.007492
 H        -2.367750        -1.640682         1.470499
 H         0.440284        -2.152640         1.686488
 H        -0.847740        -1.305975        -1.773401
 H        -1.468095        -3.121381        -0.029144
