19
Iteration:  1689charge 0 multiplicity 1
 C         1.531540         0.713759         0.032591
 C         0.092401         0.171463        -0.010809
 C        -0.964314         0.819206        -0.540357
 C        -2.112575        -0.269188        -0.310821
 C        -1.713551        -0.590862         1.221105
 C        -0.405086        -1.131311         0.516946
 O         0.358779        -2.160951         0.998257
 C        -1.353721        -1.545605        -0.837000
 O        -2.111184        -2.834354        -0.727957
 H         1.788235         1.027547         1.052231
 H         2.302925        -0.012621        -0.367098
 H         1.630450         1.649449        -0.500561
 H        -1.056837         1.813003        -0.866343
 H        -3.138031         0.038352        -0.598767
 H        -1.770731         0.381116         1.696050
 H        -2.327245        -1.270781         1.764031
 H         1.082966        -1.655858         1.493923
 H        -0.867073        -1.447317        -1.806139
 H        -1.474510        -3.487928        -0.929552
