19
Iteration:   231charge 0 multiplicity 1
 C         1.462684         0.606367        -0.021902
 C        -0.022021         0.256820         0.129494
 C        -1.123759         0.897766        -0.082901
 C        -2.159170        -0.224639         0.004967
 C        -1.630123        -0.949505         1.292659
 C        -0.368467        -1.194431         0.394160
 O         0.569702        -2.166688         0.628948
 C        -1.434725        -1.347136        -0.850532
 O        -1.981158        -2.633909        -0.855017
 H         1.534500         1.652587        -0.431059
 H         1.990068         0.461552         0.999422
 H         2.036940        -0.103261        -0.684579
 H        -1.166721         1.977575        -0.492386
 H        -3.221981         0.052517        -0.077797
 H        -1.445290        -0.227863         2.111197
 H        -2.189055        -1.804719         1.630597
 H         0.660360        -2.684161        -0.152240
 H        -1.068895        -0.997813        -1.831880
 H        -2.197882        -2.925733        -1.719265
