19
Iteration:  1584
 C         1.567282         0.534843        -0.173669
 C         0.093966         0.244817        -0.005572
 C        -0.985301         0.797313        -0.613106
 C        -2.178514        -0.304286        -0.298866
 C        -1.890568        -0.701371         1.160166
 C        -0.454977        -1.044540         0.597484
 O         0.390694        -2.088200         1.097460
 C        -1.310888        -1.490566        -0.733123
 O        -1.928304        -2.681294        -0.684306
 H         2.019037        -0.281187        -0.795778
 H         1.788596         1.438890        -0.662557
 H         1.994387         0.625333         0.855658
 H        -1.081186         1.610035        -1.259600
 H        -3.175417        -0.041030        -0.677291
 H        -1.899107         0.031331         2.043815
 H        -2.427983        -1.624954         1.355064
 H         0.219384        -2.107884         2.045202
 H        -0.581661        -1.364058        -1.573264
 H        -1.310678        -3.271878        -1.012573
