19
Iteration:   625charge 0 multiplicity 1
 C         1.545699         0.716523        -0.101693
 C         0.127822         0.206242         0.036508
 C        -1.119079         0.811184        -0.222547
 C        -2.100838        -0.314824        -0.115684
 C        -1.675234        -1.002916         1.221276
 C        -0.315864        -1.169102         0.418997
 O         0.577544        -2.075838         0.896617
 C        -1.346693        -1.465106        -0.795634
 O        -2.312777        -2.528520        -0.932393
 H         1.495459         1.606741         0.551624
 H         2.186855        -0.111668         0.281498
 H         1.704740         0.900393        -1.168372
 H        -1.165082         1.855352        -0.417820
 H        -3.117448        -0.039182        -0.267464
 H        -1.675529        -0.386019         2.159324
 H        -2.093769        -2.104431         1.412591
 H         0.714327        -1.759246         1.840061
 H        -0.956981        -1.221358        -1.805959
 H        -1.684959        -3.318070        -1.193062
