19
Iteration:  1282charge 0 multiplicity 1
 C         1.514650         0.736313         0.074833
 C         0.164589         0.239006        -0.049149
 C        -0.977272         0.683916        -0.598946
 C        -2.072629        -0.270865        -0.386375
 C        -1.841426        -0.698884         1.094216
 C        -0.436070        -1.145445         0.548076
 O         0.588168        -1.987875         0.942899
 C        -1.325580        -1.557465        -0.744049
 O        -2.216866        -2.720781        -0.534648
 H         1.779475         1.357464        -0.724999
 H         1.641660         1.300223         1.093833
 H         2.196503        -0.094431         0.139822
 H        -1.188989         1.648965        -1.082509
 H        -2.990782         0.122636        -0.850919
 H        -2.041917         0.122763         1.786625
 H        -2.331106        -1.624923         1.230079
 H         0.210002        -2.908005         0.904643
 H        -0.790482        -1.703032        -1.727131
 H        -1.700720        -3.581322        -0.435975
