19
Iteration:  1187
 C         1.548001         0.626657        -0.119527
 C         0.058003         0.235926         0.047447
 C        -1.043132         0.792203        -0.577821
 C        -2.128910        -0.282887        -0.297015
 C        -1.820545        -0.648311         1.180442
 C        -0.439391        -1.156733         0.464011
 O         0.369433        -2.110554         1.075500
 C        -1.282979        -1.466295        -0.745741
 O        -1.867900        -2.743294        -0.594649
 H         1.690917         0.499236        -1.208580
 H         1.649646         1.634385         0.265952
 H         2.149835        -0.120788         0.414548
 H        -1.171530         1.764122        -1.011487
 H        -3.164716        -0.033855        -0.544940
 H        -1.617530         0.212663         1.803102
 H        -2.247383        -1.605263         1.631870
 H         0.572632        -2.705721         0.383012
 H        -0.736658        -1.354759        -1.710859
 H        -2.797557        -2.703250        -0.998755
