19
Iteration:  4955charge 0 multiplicity 1
 C         1.629124         0.592637        -0.042443
 C         0.278581        -0.082782        -0.434719
 C        -0.530815         0.089102        -1.480527
 C        -1.804501        -0.664003        -1.037994
 C        -2.008130        -0.068729         0.422464
 C        -0.657264        -0.898686         0.649612
 O        -0.163049        -1.152342         1.898836
 C        -1.170143        -1.993284        -0.351575
 O        -2.039280        -2.971953         0.184299
 H         1.538309         1.559606         0.556643
 H         2.146402        -0.024638         0.687335
 H         2.347583         0.801929        -0.868904
 H        -0.436793         0.685665        -2.425302
 H        -2.667126        -0.745463        -1.658636
 H        -1.980189         1.015389         0.630563
 H        -3.017747        -0.480735         0.954686
 H         0.184534        -0.208284         2.161901
 H        -0.462854        -2.436763        -1.090856
 H        -2.230493        -2.739249         1.179651
