19
Iteration:  2420
 C         1.547481         0.791794         0.076184
 C         0.088209         0.250342         0.078409
 C        -1.072505         0.872144        -0.088024
 C        -2.098053        -0.245147        -0.062948
 C        -1.649455        -0.994277         1.168298
 C        -0.385297        -1.251029         0.293380
 O         0.617640        -2.158954         0.684095
 C        -1.456827        -1.420637        -0.938487
 O        -2.189321        -2.642857        -0.772963
 H         1.638557         1.876607        -0.006487
 H         2.102122         0.435292         0.987861
 H         2.154553         0.524607        -0.782263
 H        -1.377404         1.941113        -0.337784
 H        -3.138514         0.091474        -0.131598
 H        -1.679585        -0.229862         1.961052
 H        -2.133410        -1.917308         1.618290
 H         0.311893        -2.725262         1.340609
 H        -0.895879        -1.139902        -1.859747
 H        -2.475686        -2.935714        -1.574656
