19
Iteration:  4842
 C         1.619362         0.348826        -0.074287
 C         0.254572        -0.066908        -0.397940
 C        -0.652439         0.147734        -1.450938
 C        -1.867011        -0.519440        -0.950757
 C        -2.073520        -0.134715         0.468648
 C        -0.629040        -0.738939         0.667440
 O        -0.217460        -1.147093         1.884143
 C        -1.137750        -1.890421        -0.424650
 O        -1.861900        -2.873510         0.235083
 H         2.298671        -0.127867        -0.750519
 H         1.840658         1.418562         0.007556
 H         1.780428        -0.150559         0.872027
 H        -0.566385         0.479771        -2.431211
 H        -2.792364        -0.552715        -1.588620
 H        -2.021139         1.050380         0.539647
 H        -2.850866        -0.707048         0.978310
 H         0.578858        -1.717228         1.828495
 H        -0.361191        -2.301272        -1.032993
 H        -1.783513        -3.658663        -0.211407
