19
Iteration:  1782
 C         1.505648         0.645271         0.156942
 C         0.151028         0.153473        -0.154945
 C        -1.050011         0.774916        -0.514350
 C        -2.114749        -0.200430        -0.246087
 C        -1.639606        -0.642807         1.220781
 C        -0.440513        -1.179697         0.344006
 O         0.526158        -1.966892         0.964115
 C        -1.468976        -1.579008        -0.771731
 O        -2.110516        -2.786262        -0.722406
 H         1.576189         1.677827        -0.292923
 H         1.578207         0.497721         1.221204
 H         2.258287        -0.017558        -0.326266
 H        -1.118750         1.815627        -0.754611
 H        -3.126241         0.117993        -0.401004
 H        -1.585821         0.255545         1.836097
 H        -2.241512        -1.535362         1.649976
 H         0.255356        -2.581682         1.638137
 H        -1.115924        -1.298788        -1.809884
 H        -1.405699        -3.407608        -0.927769
