19
Iteration:   249
 C         1.442557         0.687509         0.051187
 C         0.091081         0.198295         0.070427
 C        -1.094004         0.862885        -0.095260
 C        -2.146845        -0.242552        -0.066821
 C        -1.713041        -0.985499         1.251879
 C        -0.401072        -1.259616         0.298511
 O         0.726558        -2.094499         0.640530
 C        -1.360177        -1.364074        -0.843559
 O        -2.193939        -2.558232        -0.754759
 H         1.570562         1.721423        -0.014977
 H         2.164484         0.388047         0.845472
 H         2.072512         0.329688        -0.836662
 H        -1.488969         1.851293        -0.002990
 H        -3.178244        -0.163997        -0.359200
 H        -1.504672        -0.393031         2.195418
 H        -2.282536        -1.943952         1.419567
 H         0.514886        -2.901232         0.212984
 H        -0.932340        -1.212350        -1.877462
 H        -2.236952        -2.855249        -1.627208
