19
Iteration:   166
 C         1.421767         0.627595        -0.197948
 C         0.035671         0.245403         0.270452
 C        -1.099867         0.911567         0.032969
 C        -2.147599        -0.188595         0.017927
 C        -1.660555        -0.981249         1.297284
 C        -0.435294        -1.177716         0.400245
 O         0.502487        -2.240111         0.640985
 C        -1.362272        -1.312015        -0.866769
 O        -1.824308        -2.619309        -0.967603
 H         1.303010         0.940134        -1.217489
 H         1.730189         1.443785         0.386491
 H         2.010904        -0.218449        -0.099450
 H        -1.328559         1.908874        -0.406199
 H        -3.228515         0.016765         0.006889
 H        -1.411098        -0.319648         2.117952
 H        -2.330440        -1.732613         1.585868
 H        -0.076899        -3.006972         0.962234
 H        -0.897602        -0.987176        -1.785485
 H        -2.588638        -2.660590        -1.653947
