19
Iteration:  3846charge 0 multiplicity 1
 C         1.508102         0.443924        -0.096224
 C         0.059664         0.172593        -0.208446
 C        -0.914583         0.625616        -1.049946
 C        -2.031852        -0.299583        -0.640578
 C        -1.902684        -0.426130         0.996801
 C        -0.481379        -1.018150         0.557081
 O         0.153636        -1.753695         1.580041
 C        -1.224569        -1.676623        -0.652253
 O        -1.892323        -2.874176        -0.419265
 H         1.955036        -0.137725         0.719217
 H         2.035493        -0.022111        -0.895195
 H         1.876986         1.490316         0.000634
 H        -0.607140         1.479211        -1.699094
 H        -2.962837        -0.280452        -1.178101
 H        -1.873066         0.547082         1.663654
 H        -2.540598        -1.166003         1.427350
 H         1.147449        -1.624126         1.532881
 H        -0.547279        -1.837499        -1.457652
 H        -1.792896        -3.125387         0.574081
