19
Iteration:  1165charge 0 multiplicity 1
 C         1.580387         0.599920        -0.236198
 C         0.092324         0.229455        -0.056994
 C        -1.069924         0.915260        -0.378080
 C        -2.115038        -0.176428        -0.289471
 C        -1.844970        -0.782799         1.136508
 C        -0.455070        -1.153205         0.508270
 O         0.389127        -2.040963         1.144143
 C        -1.235921        -1.518152        -0.793545
 O        -1.920182        -2.759920        -0.555924
 H         1.768850         0.248498        -1.289853
 H         1.550988         1.642941         0.001042
 H         2.121847        -0.090634         0.411814
 H        -1.067176         1.857269        -0.868163
 H        -3.073234         0.076538        -0.770071
 H        -1.917234        -0.044822         1.931853
 H        -2.459372        -1.769423         1.194182
 H         0.214120        -2.930812         0.651740
 H        -0.835686        -1.328561        -1.792812
 H        -2.181945        -3.075706        -1.419624
