19
Iteration:   351
 C         1.569549         0.716931         0.058552
 C         0.095937         0.277371         0.182983
 C        -1.057130         0.859943        -0.179103
 C        -2.181676        -0.173915        -0.006914
 C        -1.695853        -0.972449         1.260381
 C        -0.420150        -1.132557         0.349673
 O         0.437795        -2.287878         0.452037
 C        -1.481437        -1.342181        -0.851752
 O        -1.990962        -2.691678        -0.791718
 H         2.066707         0.869083         1.057471
 H         2.127552        -0.067045        -0.589404
 H         1.545544         1.747351        -0.398176
 H        -1.175842         1.750729        -0.643945
 H        -3.219814         0.127506        -0.234434
 H        -1.543360        -0.401263         2.198500
 H        -2.406296        -1.770908         1.510279
 H         1.242443        -2.027266         1.021701
 H        -1.406168        -1.017927        -1.931675
 H        -1.298323        -3.207943        -0.213808
