19
Iteration:  2779charge 0 multiplicity 1
 C         1.451019         0.642022         0.077828
 C         0.017997         0.292121         0.061039
 C        -1.123846         0.964797        -0.244467
 C        -2.110986        -0.203810        -0.089556
 C        -1.668194        -0.875219         1.257336
 C        -0.439602        -1.192856         0.388075
 O         0.459878        -2.298929         0.736979
 C        -1.336478        -1.355078        -0.809039
 O        -1.945154        -2.626706        -0.898166
 H         1.944969        -0.301140         0.305989
 H         1.843603         1.115927        -0.820330
 H         1.670270         1.345453         0.839656
 H        -1.550077         1.987896        -0.311963
 H        -3.181982        -0.083568        -0.364592
 H        -1.544550        -0.423787         2.214483
 H        -2.232293        -1.861953         1.466124
 H         0.615036        -2.724690        -0.188614
 H        -0.955103        -1.089443        -1.766949
 H        -1.286454        -3.281038        -0.373835
