19
Iteration:  1862charge 0 multiplicity 1
 C         1.485766         0.509431        -0.225880
 C         0.075400         0.179578         0.086530
 C        -1.034633         0.857068        -0.308050
 C        -2.149953        -0.142119        -0.225992
 C        -1.831362        -0.728081         1.125525
 C        -0.487842        -1.120148         0.497869
 O         0.484288        -2.052839         1.067326
 C        -1.356361        -1.391419        -0.845950
 O        -1.793245        -2.829651        -0.708309
 H         1.657362         0.463104        -1.252032
 H         1.556218         1.642712        -0.005275
 H         2.184709        -0.108730         0.333310
 H        -1.086216         1.768094        -0.910546
 H        -3.197394         0.132532        -0.500806
 H        -1.745283        -0.013308         1.971850
 H        -2.550169        -1.484118         1.425970
 H         0.046061        -2.922040         1.078719
 H        -0.748931        -1.110410        -1.735854
 H        -2.532424        -3.086062        -1.261834
