19
Iteration:  2161
 C         1.544509         0.670656         0.066511
 C         0.073208         0.221659         0.017773
 C        -1.058546         0.938402        -0.332849
 C        -2.157977        -0.125093        -0.085747
 C        -1.737029        -0.873826         1.141483
 C        -0.465843        -1.145267         0.359986
 O         0.575083        -2.137711         0.808513
 C        -1.440579        -1.421799        -0.860668
 O        -1.956724        -2.806736        -0.705604
 H         1.996752         0.672232        -0.993850
 H         1.697147         1.669506         0.377016
 H         2.086840        -0.057175         0.640864
 H        -1.134209         1.985144        -0.422076
 H        -3.193540         0.207076        -0.143116
 H        -1.469937        -0.539021         2.120691
 H        -2.258290        -1.846634         1.232101
 H         0.227963        -2.885687         1.207863
 H        -1.106552        -1.289663        -1.914637
 H        -2.784479        -2.847166        -1.308339
