19
Iteration:  1450charge 0 multiplicity 1
 C         1.524560         0.725584         0.070456
 C         0.134562         0.113727        -0.156920
 C        -0.959162         0.702896        -0.696584
 C        -2.127632        -0.211256        -0.318285
 C        -1.730845        -0.582772         1.174500
 C        -0.446549        -1.122912         0.471602
 O         0.354634        -2.049467         1.146527
 C        -1.412125        -1.611675        -0.749351
 O        -2.043579        -2.827139        -0.647373
 H         1.663654         1.823919        -0.274986
 H         1.832458         0.642029         1.107970
 H         2.249521         0.197238        -0.589165
 H        -1.063155         1.708154        -1.126552
 H        -3.065522         0.199164        -0.665427
 H        -1.550959         0.248628         1.898041
 H        -2.357780        -1.452403         1.610794
 H         1.171317        -1.635448         1.581571
 H        -1.028178        -1.306285        -1.787851
 H        -1.593604        -3.440667        -1.157638
