19
Iteration:  4202charge 0 multiplicity 1
 C         1.633674         0.640756        -0.088092
 C         0.198839         0.102146        -0.171869
 C        -0.670075         0.406467        -1.159075
 C        -1.952187        -0.451455        -0.777021
 C        -1.965260        -0.407130         0.802501
 C        -0.584219        -0.964752         0.596756
 O         0.182839        -1.530801         1.564238
 C        -1.271255        -1.799730        -0.536838
 O        -2.074446        -2.850200        -0.110627
 H         1.911441         0.869424        -1.132020
 H         1.639459         1.557773         0.519889
 H         2.293587        -0.139457         0.280387
 H        -0.673983         1.062234        -2.081729
 H        -2.822893        -0.400789        -1.395922
 H        -2.060068         0.560628         1.422266
 H        -2.620012        -1.113006         1.226464
 H        -0.419607        -1.778548         2.202850
 H        -0.595588        -2.137217        -1.409664
 H        -2.024031        -3.557020        -0.732276
