19
Iteration:  3004charge 0 multiplicity 1
 C         1.461962         0.683546         0.083120
 C         0.060769         0.276446         0.131234
 C        -1.079840         0.835240        -0.416925
 C        -2.087325        -0.280631        -0.186218
 C        -1.715306        -0.749550         1.147433
 C        -0.365981        -1.182454         0.399102
 O         0.600603        -2.161385         0.845139
 C        -1.345017        -1.471249        -0.847626
 O        -2.185412        -2.687400        -0.781717
 H         2.127971         0.030766         0.572688
 H         1.858733         0.763254        -0.884253
 H         1.673757         1.635222         0.575074
 H        -1.420541         1.935744        -0.608594
 H        -3.193560        -0.149573        -0.396186
 H        -1.732337         0.005739         1.994032
 H        -2.321665        -1.620389         1.400734
 H         0.710379        -2.282268         1.823958
 H        -0.799982        -1.467186        -1.832397
 H        -1.659951        -3.473464        -1.265017
