19
Iteration:   544
 C         1.469116         0.681689         0.219089
 C         0.097693         0.311777        -0.062709
 C        -1.136911         0.910496        -0.381056
 C        -2.185779        -0.122845        -0.031074
 C        -1.595740        -0.710488         1.280320
 C        -0.437032        -1.175840         0.308269
 O         0.435747        -2.265860         0.651011
 C        -1.473038        -1.436920        -0.820728
 O        -1.827026        -2.840452        -0.671563
 H         1.955789         1.545511        -0.250787
 H         1.569724         0.706651         1.344442
 H         2.122007        -0.160111        -0.157462
 H        -1.225400         1.947668        -0.800815
 H        -3.256527         0.136401        -0.235654
 H        -1.225594         0.038008         2.072404
 H        -2.092357        -1.598911         1.698504
 H         0.167124        -2.981386         0.030597
 H        -1.295820        -1.237749        -1.872272
 H        -2.272679        -3.059558        -1.522897
