19
Iteration:  3444charge 0 multiplicity 1
 C         1.524555         0.599137         0.031689
 C         0.112101         0.191856        -0.088977
 C        -0.991590         0.759761        -0.607659
 C        -2.104211        -0.288339        -0.454081
 C        -1.875112        -0.646247         1.090402
 C        -0.468903        -1.076778         0.502536
 O         0.471025        -1.894074         1.111586
 C        -1.276351        -1.645478        -0.725318
 O        -2.057056        -2.781773        -0.573060
 H         1.864702         0.430485         1.089612
 H         2.150981        -0.203785        -0.535182
 H         1.647512         1.614126        -0.380930
 H        -0.969434         1.614377        -1.353008
 H        -3.144339        -0.088889        -0.877335
 H        -1.907502         0.217194         1.828451
 H        -2.520814        -1.459799         1.309058
 H         0.472247        -1.707881         2.036709
 H        -0.572982        -1.688167        -1.594729
 H        -1.653603        -3.503928        -0.992865
