19
Iteration:  2517
 C         1.513178         0.796722         0.038263
 C         0.086309         0.192359         0.072467
 C        -1.013345         0.871107         0.023206
 C        -2.151519        -0.156378        -0.061532
 C        -1.703029        -1.039417         1.152551
 C        -0.437061        -1.224620         0.287452
 O         0.478431        -2.251242         0.716714
 C        -1.448866        -1.383182        -0.913788
 O        -1.976466        -2.650077        -0.762327
 H         1.677148         1.427593        -0.864724
 H         1.736274         1.532099         0.902823
 H         2.434133         0.175487         0.020137
 H        -1.193259         1.973209        -0.322593
 H        -3.183689         0.230865        -0.222221
 H        -1.722347        -0.502085         2.034374
 H        -2.277005        -1.931433         1.286554
 H         1.298097        -2.209602         0.314904
 H        -1.340998        -1.065261        -2.004827
 H        -2.566801        -2.766654        -1.471404
