19
Iteration:  3373
 C         1.524463         0.652057        -0.123026
 C         0.083170         0.177195         0.012557
 C        -1.028006         0.699090        -0.581632
 C        -2.176563        -0.202527        -0.340401
 C        -1.818417        -0.543705         1.136941
 C        -0.488211        -1.123873         0.540477
 O         0.465067        -2.020062         1.205876
 C        -1.331082        -1.530167        -0.754626
 O        -1.888915        -2.871161        -0.791437
 H         1.696514         1.622550        -0.690835
 H         1.967404         0.897057         0.876181
 H         2.237582        -0.103106        -0.583710
 H        -0.985629         1.681383        -1.190974
 H        -3.195606         0.035843        -0.557445
 H        -1.560335         0.280598         1.793591
 H        -2.387167        -1.391561         1.622992
 H         0.073299        -2.872637         1.300732
 H        -0.796171        -1.385675        -1.763083
 H        -2.408907        -2.912223         0.003515
