19
Iteration:  3246charge 0 multiplicity 1
 C         1.439876         0.728278         0.060381
 C         0.082813         0.241240        -0.050818
 C        -1.000974         0.726686        -0.657667
 C        -2.109105        -0.265274        -0.208410
 C        -1.626822        -0.753233         1.218704
 C        -0.402662        -1.148151         0.399306
 O         0.451573        -2.048708         1.044010
 C        -1.293816        -1.517676        -0.775399
 O        -2.119562        -2.698338        -0.706080
 H         1.853641         0.244519         0.918537
 H         2.006122         0.496141        -0.867026
 H         1.463499         1.841957         0.183592
 H        -1.280179         1.789852        -1.026254
 H        -3.108134         0.064893        -0.546752
 H        -1.440636        -0.013749         1.965106
 H        -2.282957        -1.644380         1.497717
 H         0.086606        -2.850456         1.309612
 H        -0.885055        -1.402309        -1.723296
 H        -1.756887        -3.578175        -0.827440
