19
Iteration:  4599charge 0 multiplicity 1
 C         1.724134         0.456736        -0.111993
 C         0.202706         0.053706        -0.324464
 C        -0.730013         0.303932        -1.262102
 C        -1.973139        -0.580527        -0.855101
 C        -1.886079        -0.164211         0.604489
 C        -0.617823        -0.790095         0.637402
 O        -0.043820        -1.262491         1.897172
 C        -1.169516        -1.954166        -0.441312
 O        -2.101150        -3.006324        -0.163230
 H         2.478095        -0.152411        -0.600119
 H         1.762935         1.546791        -0.436938
 H         1.990502         0.623912         0.978196
 H        -0.637412         0.588719        -2.271091
 H        -2.923297        -0.536310        -1.329934
 H        -2.005558         0.933019         0.553465
 H        -2.641706        -0.666091         1.259847
 H         0.875050        -0.784452         2.081474
 H        -0.481036        -2.308050        -1.275968
 H        -1.683092        -3.707610         0.489624
