19
Iteration:  1446
 C         1.557776         0.735437         0.056348
 C         0.092986         0.123619        -0.167543
 C        -0.963317         0.740435        -0.727740
 C        -2.102796        -0.218362        -0.268925
 C        -1.736678        -0.598678         1.160547
 C        -0.465944        -1.172937         0.461389
 O         0.337718        -2.035493         1.183453
 C        -1.401394        -1.578542        -0.785731
 O        -2.040757        -2.830318        -0.632770
 H         1.619834         1.748684        -0.177927
 H         2.005127         0.566482         1.094346
 H         2.230934         0.191129        -0.556124
 H        -1.052306         1.700362        -1.156133
 H        -3.107509         0.123075        -0.587375
 H        -1.561081         0.206526         1.825672
 H        -2.256489        -1.475189         1.550525
 H         1.162405        -1.703975         1.514627
 H        -1.051717        -1.254514        -1.735779
 H        -1.481795        -3.496694        -1.193774
