19
Iteration:  1909
 C         1.550712         0.556112        -0.019413
 C         0.064271         0.201485         0.014492
 C        -1.123903         0.862104        -0.437931
 C        -2.186934        -0.235599        -0.177284
 C        -1.747857        -0.658895         1.221738
 C        -0.444861        -1.112776         0.471225
 O         0.466124        -2.089398         0.894146
 C        -1.380060        -1.496892        -0.827024
 O        -1.842340        -2.729614        -0.674642
 H         2.010543        -0.425996        -0.217100
 H         1.873182         1.277923        -0.768483
 H         1.759952         0.824347         1.012193
 H        -1.114622         1.817116        -0.963602
 H        -3.223136         0.066975        -0.358271
 H        -1.685879         0.109215         1.981505
 H        -2.201838        -1.481981         1.729429
 H         0.133160        -3.033376         0.688945
 H        -1.076974        -1.188848        -1.837470
 H        -2.184531        -3.110044        -1.598217
