19
Iteration:  1154charge 0 multiplicity 1
 C         1.562012         0.546915        -0.238059
 C         0.087354         0.211060         0.025846
 C        -1.003771         0.906664        -0.369079
 C        -2.162298        -0.161138        -0.243361
 C        -1.872580        -0.776313         1.056859
 C        -0.436342        -1.110953         0.434903
 O         0.418573        -1.980720         1.138418
 C        -1.293706        -1.485588        -0.743578
 O        -1.948582        -2.818724        -0.629637
 H         1.857701         0.336800        -1.317382
 H         1.819367         1.610488        -0.270007
 H         2.335841         0.185092         0.444928
 H        -1.057820         1.808802        -0.918562
 H        -3.216629         0.083125        -0.404777
 H        -1.879484        -0.215172         1.993143
 H        -2.299519        -1.803728         1.367814
 H        -0.005593        -2.871684         1.154581
 H        -0.758541        -1.529849        -1.695024
 H        -1.843324        -3.239212        -1.437386
