19
Iteration:  2488
 C         1.451250         0.626106         0.187091
 C         0.058268         0.256323         0.116635
 C        -1.114768         0.932037        -0.232009
 C        -2.160310        -0.203794        -0.063167
 C        -1.611696        -0.903791         1.275697
 C        -0.424608        -1.165715         0.367528
 O         0.496817        -2.237907         0.506428
 C        -1.411138        -1.401760        -0.792441
 O        -1.969428        -2.708248        -0.824255
 H         1.936322         1.300867        -0.605186
 H         1.724052         1.191272         1.077411
 H         2.219031        -0.141291         0.137672
 H        -1.245091         2.015283        -0.333293
 H        -3.234356         0.103705        -0.143974
 H        -1.557720        -0.154510         2.144339
 H        -2.200282        -1.879278         1.575427
 H         1.470874        -1.969704         0.453708
 H        -1.252664        -1.171139        -1.858876
 H        -2.703055        -2.706100        -1.559950
