19
Iteration:  2966
 C         1.488206         0.729317         0.012763
 C         0.113630         0.235980         0.015588
 C        -1.024498         0.871440        -0.352934
 C        -2.121139        -0.176780        -0.116245
 C        -1.790358        -0.879645         1.139969
 C        -0.406626        -1.138206         0.469338
 O         0.328131        -2.260197         0.751443
 C        -1.291730        -1.434442        -0.814147
 O        -1.971350        -2.695700        -0.723461
 H         1.832033         0.866318         1.121421
 H         2.205273         0.092905        -0.642113
 H         1.412674         1.773346        -0.424779
 H        -1.187778         1.872677        -0.475676
 H        -3.101049         0.073063        -0.422714
 H        -1.972615        -0.384614         2.099248
 H        -2.393155        -1.844329         1.160869
 H         1.150323        -1.993717         1.327864
 H        -0.944663        -1.142783        -1.769364
 H        -1.286519        -3.382484        -0.559001
