19
Iteration:   195
 C         1.487536         0.598880        -0.161747
 C         0.037983         0.249561        -0.006807
 C        -1.092895         0.893381        -0.135316
 C        -2.228511        -0.188532         0.176973
 C        -1.680850        -0.957056         1.433537
 C        -0.448810        -1.139640         0.453577
 O         0.404825        -2.258769         0.687656
 C        -1.490585        -1.277531        -0.798803
 O        -1.653725        -2.641131        -1.046402
 H         1.790380         1.309389        -0.950262
 H         1.889948         1.179502         0.827183
 H         2.229677        -0.379182        -0.223884
 H        -1.394296         1.903418        -0.282570
 H        -3.256859         0.111534         0.220270
 H        -1.486330        -0.274322         2.332869
 H        -2.285715        -1.885545         1.730620
 H         0.059841        -2.878616         0.048537
 H        -1.116832        -0.848749        -1.782594
 H        -2.403273        -2.855103        -1.599774
