19
Iteration:   779
 C         1.410086         0.752892         0.143576
 C         0.058552         0.154195        -0.091683
 C        -1.040038         0.764476        -0.487662
 C        -2.104533        -0.206197        -0.019456
 C        -1.497082        -0.846666         1.320828
 C        -0.398190        -1.282114         0.367030
 O         0.737524        -2.050522         0.814951
 C        -1.459344        -1.491259        -0.795463
 O        -2.319312        -2.606333        -0.834266
 H         2.240336         0.109592         0.378429
 H         1.895312         1.210860        -0.784244
 H         1.395892         1.399122         0.985623
 H        -1.332652         1.553400        -1.187286
 H        -3.178842         0.005363        -0.152960
 H        -1.322086        -0.047558         2.133916
 H        -2.314084        -1.596145         1.606109
 H         0.379826        -2.552455         1.557073
 H        -1.198031        -1.368211        -1.844361
 H        -1.849704        -3.212751        -1.512856
