19
Iteration:  2788
 C         1.454620         0.637699         0.065628
 C        -0.001341         0.308918         0.023795
 C        -1.183488         0.934247        -0.201077
 C        -2.152827        -0.190592        -0.024237
 C        -1.650308        -0.824392         1.265451
 C        -0.398901        -1.151603         0.402075
 O         0.401466        -2.342035         0.750497
 C        -1.280348        -1.368599        -0.836593
 O        -1.924060        -2.665078        -0.949290
 H         2.133986        -0.202371         0.067135
 H         1.877386         1.196833        -0.816360
 H         1.733856         1.104044         1.046505
 H        -1.308124         1.966713        -0.462536
 H        -3.256350        -0.025543        -0.131413
 H        -1.582632        -0.068136         2.048653
 H        -2.184914        -1.840837         1.420093
 H         0.919713        -2.665513        -0.098106
 H        -0.943634        -0.996739        -1.836767
 H        -1.443660        -3.369683        -0.281672
