19
Iteration:  4646
 C         1.621219         0.475966        -0.152211
 C         0.217087        -0.007396        -0.263453
 C        -0.598370         0.263039        -1.316155
 C        -1.862406        -0.569642        -0.912650
 C        -2.100020        -0.248024         0.561109
 C        -0.575777        -0.839114         0.664396
 O         0.005897        -1.179761         1.916944
 C        -1.163896        -1.894796        -0.447695
 O        -2.118374        -2.880331        -0.020015
 H         1.755762         1.050362        -1.099336
 H         1.732954         1.041603         0.811651
 H         2.444866        -0.294719        -0.088743
 H        -0.360434         0.405027        -2.398453
 H        -2.803504        -0.683716        -1.488844
 H        -2.314879         0.784446         0.965199
 H        -2.871399        -0.821378         0.912519
 H         0.979690        -1.357034         1.866845
 H        -0.464467        -2.424022        -1.217228
 H        -1.731703        -3.744302        -0.048811
