19
Iteration:  1540charge 0 multiplicity 1
 C         1.532288         0.624444         0.104734
 C         0.101321         0.154964        -0.175303
 C        -1.026573         0.829222        -0.606362
 C        -2.154314        -0.170937        -0.346573
 C        -1.706831        -0.526180         1.135367
 C        -0.453776        -1.132398         0.466512
 O         0.453895        -2.061765         1.057396
 C        -1.382742        -1.558666        -0.795453
 O        -2.012353        -2.913175        -0.647803
 H         2.068387         0.664971        -0.880724
 H         1.546646         1.631228         0.451460
 H         2.072845        -0.007118         0.901039
 H        -1.116241         1.865127        -0.826575
 H        -3.204350        -0.038164        -0.651076
 H        -1.532912         0.447247         1.736766
 H        -2.274653        -1.307457         1.617697
 H         0.046020        -2.369023         1.874558
 H        -1.155819        -1.350493        -1.879450
 H        -1.388392        -3.455993        -0.176410
