19
Iteration:   747charge 0 multiplicity 1
 C         1.609626         0.781695         0.048102
 C         0.157967         0.203453        -0.026142
 C        -1.114870         0.803935        -0.289623
 C        -2.130529        -0.300380        -0.070779
 C        -1.578011        -0.813281         1.282245
 C        -0.382913        -1.146059         0.396397
 O         0.580125        -2.117982         0.713125
 C        -1.481347        -1.490739        -0.839241
 O        -2.249047        -2.709094        -0.862697
 H         2.122218         0.079478         0.675616
 H         1.946695         0.825982        -0.947856
 H         1.471894         1.763282         0.433817
 H        -1.281431         1.805619        -0.627400
 H        -3.202590        -0.092407        -0.250272
 H        -1.625949         0.032003         2.048419
 H        -2.161151        -1.633252         1.721173
 H         0.452150        -2.335039         1.632757
 H        -1.089550        -1.133585        -1.794764
 H        -1.849592        -3.412234        -0.404580
