19
Iteration:  2418charge 0 multiplicity 1
 C         1.553014         0.801335         0.066112
 C         0.079478         0.257584         0.078980
 C        -1.054245         0.858673        -0.087528
 C        -2.092796        -0.266943        -0.061624
 C        -1.652815        -1.013015         1.176400
 C        -0.405066        -1.227975         0.292554
 O         0.607227        -2.156048         0.694435
 C        -1.464544        -1.412707        -0.938493
 O        -2.179381        -2.617319        -0.759583
 H         1.642003         1.852902         0.053463
 H         2.190041         0.436514         0.954386
 H         2.151997         0.561609        -0.836730
 H        -1.406077         1.823503        -0.385183
 H        -3.104941         0.050254        -0.151195
 H        -1.666619        -0.250325         1.918099
 H        -2.120055        -1.902525         1.535555
 H         0.270292        -2.851570         1.252191
 H        -0.824239        -1.180136        -1.846944
 H        -2.492787        -2.996351        -1.649982
