19
Iteration:  4317
 C         1.626033         0.501038        -0.064219
 C         0.190726         0.120646        -0.286784
 C        -0.848415         0.493890        -1.123596
 C        -1.965521        -0.512973        -0.808984
 C        -1.938111        -0.323413         0.686013
 C        -0.549110        -0.959703         0.557858
 O         0.015450        -1.520265         1.737335
 C        -1.150425        -1.832889        -0.588077
 O        -1.982499        -2.849887        -0.132923
 H         1.992437         0.448508         0.932627
 H         2.253168        -0.244808        -0.541150
 H         1.781818         1.469467        -0.504605
 H        -0.750125         1.108924        -2.045581
 H        -2.952845        -0.597207        -1.296190
 H        -1.923614         0.681083         1.070210
 H        -2.716551        -0.897121         1.209130
 H         0.942388        -1.580599         1.786275
 H        -0.525156        -2.159584        -1.387137
 H        -1.985676        -3.003717         0.788075
