19
Iteration:   932charge 0 multiplicity 1
 C         1.472112         0.627561        -0.078279
 C         0.095736         0.213310         0.055351
 C        -1.065860         0.797485        -0.404218
 C        -2.055341        -0.339788        -0.230957
 C        -1.820515        -0.859965         1.170490
 C        -0.348730        -1.142023         0.548595
 O         0.682918        -1.910541         1.041369
 C        -1.289944        -1.505529        -0.768374
 O        -2.290850        -2.610853        -0.858298
 H         1.669732         1.648211        -0.173921
 H         2.198696         0.079637         0.683477
 H         1.857098         0.354288        -1.075162
 H        -1.025470         1.649259        -1.059037
 H        -3.134610        -0.192574        -0.467123
 H        -1.949444        -0.212396         2.110149
 H        -2.293528        -1.831159         1.315464
 H         0.333003        -2.749307         1.272672
 H        -0.837631        -1.361372        -1.757500
 H        -1.901444        -3.386833        -1.159534
