19
Iteration:  4705charge 0 multiplicity 1
 C         1.572206         0.495286        -0.051644
 C         0.226571        -0.039838        -0.386981
 C        -0.603294         0.141716        -1.406952
 C        -1.918961        -0.545207        -1.017648
 C        -1.994100        -0.142314         0.563364
 C        -0.621945        -0.809077         0.615326
 O        -0.103907        -1.324981         1.854792
 C        -1.190989        -1.848537        -0.473142
 O        -1.952206        -2.800739         0.192825
 H         1.370738         1.258756         0.705907
 H         2.156302        -0.180977         0.576299
 H         2.230279         0.797652        -0.866483
 H        -0.568975         0.540884        -2.377731
 H        -2.874120        -0.531684        -1.580834
 H        -1.962592         0.903213         0.804453
 H        -2.848038        -0.731157         1.090999
 H         0.525828        -2.108692         1.646260
 H        -0.456249        -2.256582        -1.166136
 H        -1.286557        -3.551296         0.457940
