19
Iteration:  2436charge 0 multiplicity 1
 C         1.439976         0.692362         0.148033
 C         0.049609         0.236077         0.028108
 C        -1.028147         0.894338        -0.152927
 C        -2.149433        -0.181241        -0.069135
 C        -1.605882        -0.916113         1.259843
 C        -0.376975        -1.175872         0.292679
 O         0.672788        -2.188036         0.629801
 C        -1.459317        -1.430003        -0.829361
 O        -2.164287        -2.692461        -0.841588
 H         1.456521         1.796850        -0.065746
 H         1.903174         0.653469         1.130081
 H         2.115450         0.073562        -0.502253
 H        -1.167942         1.936702        -0.187766
 H        -3.217320        -0.079546        -0.328122
 H        -1.175429        -0.430063         2.180850
 H        -2.292103        -1.775963         1.248083
 H         0.642212        -2.310810         1.552099
 H        -1.258948        -1.305292        -1.899125
 H        -2.535748        -2.775402        -1.754192
