19
Iteration:   844charge 0 multiplicity 1
 C         1.505541         0.592604        -0.046017
 C         0.071239         0.190988         0.074226
 C        -0.986216         0.847008        -0.336861
 C        -2.144039        -0.154265        -0.226240
 C        -1.830613        -0.758933         1.219821
 C        -0.402455        -1.121469         0.442818
 O         0.436655        -2.104192         0.719794
 C        -1.414799        -1.421077        -0.810563
 O        -1.797319        -2.781559        -0.572229
 H         1.714723         0.308966        -1.067023
 H         1.365159         1.754394         0.111873
 H         2.106002         0.050937         0.651280
 H        -1.138786         1.857946        -0.744897
 H        -3.183037         0.172711        -0.454702
 H        -1.731688        -0.107720         2.170830
 H        -2.366080        -1.715863         1.525879
 H         0.125963        -2.958068         0.416905
 H        -0.994590        -1.221738        -1.805420
 H        -2.656481        -2.933696        -0.844487
