19
Iteration:   607
 C         1.536888         0.787106        -0.037684
 C         0.178479         0.256505         0.118483
 C        -1.096692         0.879067        -0.215254
 C        -2.077246        -0.239812        -0.161256
 C        -1.748759        -0.957464         1.153005
 C        -0.384686        -1.235127         0.475350
 O         0.752163        -2.125716         0.837476
 C        -1.424145        -1.509327        -0.886467
 O        -2.349482        -2.614916        -0.816992
 H         1.721903         1.819770         0.432733
 H         2.237708         0.172547         0.486072
 H         1.758178         0.802972        -1.115681
 H        -1.213304         1.953354        -0.651629
 H        -3.126742        -0.123367        -0.506564
 H        -1.793306        -0.450436         2.095758
 H        -2.370087        -1.759403         1.343336
 H         0.712039        -2.391069         1.796041
 H        -1.035959        -1.453484        -1.946555
 H        -2.099365        -3.355919        -1.493148
