19
Iteration:  2364charge 0 multiplicity 1
 C         1.524910         0.669712        -0.090023
 C         0.095708         0.199078         0.100721
 C        -1.162011         0.868045        -0.149113
 C        -2.206465        -0.215145         0.024933
 C        -1.696727        -0.815927         1.392973
 C        -0.446850        -1.185730         0.420198
 O         0.488165        -2.182394         0.716325
 C        -1.356978        -1.364387        -0.786449
 O        -1.967140        -2.716306        -0.955179
 H         1.826680         1.420932         0.575036
 H         2.278100        -0.133279         0.240756
 H         1.922257         0.899741        -1.075849
 H        -1.196658         1.818813        -0.600755
 H        -3.202532        -0.011325        -0.282140
 H        -1.422521         0.028649         2.027298
 H        -2.308795        -1.633240         1.801373
 H         0.649209        -2.758912        -0.034861
 H        -1.072807        -0.854389        -1.741948
 H        -1.792860        -3.134691        -1.917557
