19
Iteration:  4583charge 0 multiplicity 1
 C         1.593787         0.475771        -0.131221
 C         0.214138         0.054755        -0.331193
 C        -0.654638         0.282725        -1.300708
 C        -1.874951        -0.494508        -0.897734
 C        -2.054849        -0.153298         0.650097
 C        -0.565445        -0.912483         0.635464
 O        -0.032375        -1.307867         1.839486
 C        -1.221511        -1.881870        -0.462352
 O        -2.049577        -2.990100        -0.054418
 H         2.224240        -0.444693        -0.213141
 H         1.988132         1.180194        -0.827276
 H         1.822539         0.851753         0.862211
 H        -0.491089         1.008233        -2.136469
 H        -2.690109        -0.533499        -1.689256
 H        -1.962624         0.843928         1.077445
 H        -2.782023        -0.856886         1.109913
 H         0.852021        -0.859814         2.008450
 H        -0.427392        -2.214905        -1.087228
 H        -1.444209        -3.518832         0.540070
