19
Iteration:   729charge 0 multiplicity 1
 C         1.473113         0.703383        -0.059247
 C         0.121421         0.272265         0.031659
 C        -1.125708         0.930908        -0.249897
 C        -2.139856        -0.221454        -0.096063
 C        -1.674440        -0.919911         1.240416
 C        -0.407881        -1.234164         0.330275
 O         0.517479        -2.196573         0.700866
 C        -1.351645        -1.451666        -0.821694
 O        -2.093556        -2.629412        -0.741522
 H         2.120917         0.142074         0.794913
 H         2.025711         0.391296        -0.977861
 H         1.687494         1.818574         0.152947
 H        -1.361343         1.967909        -0.590986
 H        -3.187693         0.043026        -0.382906
 H        -1.340403        -0.372400         2.125184
 H        -2.259544        -1.756729         1.567342
 H         0.435337        -2.279436         1.633954
 H        -0.997679        -1.393406        -1.907683
 H        -1.610370        -3.163810        -0.161268
