19
Iteration:  1984
 C         1.380521         0.743131         0.166445
 C         0.092866         0.203329        -0.080197
 C        -1.004776         0.860065        -0.448884
 C        -2.099870        -0.239844        -0.161028
 C        -1.536328        -0.808143         1.196550
 C        -0.314984        -1.216478         0.293478
 O         0.574898        -2.101313         0.882642
 C        -1.404322        -1.504997        -0.871212
 O        -2.263513        -2.658098        -0.671543
 H         1.677326         0.521981         1.194125
 H         2.148923         0.195649        -0.496895
 H         1.268641         1.820100         0.075423
 H        -1.231333         1.850120        -0.722077
 H        -3.162156        -0.154360        -0.324116
 H        -1.391263        -0.001899         1.966244
 H        -2.071526        -1.711863         1.530666
 H         0.164665        -2.751258         1.394966
 H        -0.856296        -1.653759        -1.838355
 H        -1.847100        -3.270323        -1.182491
