19
Iteration:  1069
 C         1.566175         0.697200         0.002478
 C         0.075956         0.206227         0.022409
 C        -0.986352         0.767041        -0.413771
 C        -2.132395        -0.175799        -0.281829
 C        -1.729119        -0.760398         1.084816
 C        -0.398268        -1.191849         0.399245
 O         0.508342        -2.037443         0.990405
 C        -1.429696        -1.578874        -0.817213
 O        -2.147129        -2.750809        -0.740090
 H         2.324855        -0.096905         0.455684
 H         1.762272         1.102810        -0.930218
 H         1.815247         1.542388         0.779661
 H        -1.214768         1.647421        -1.016524
 H        -3.196308         0.076909        -0.503501
 H        -1.585482        -0.112337         1.943195
 H        -2.256647        -1.769884         1.301889
 H         0.787260        -1.637271         1.894019
 H        -1.049129        -1.304130        -1.823272
 H        -1.729033        -3.270821         0.053977
