19
Iteration:  3350charge 0 multiplicity 1
 C         1.452009         0.574270        -0.084903
 C         0.043517         0.199279        -0.027187
 C        -0.981688         0.821451        -0.576219
 C        -2.025554        -0.243514        -0.314067
 C        -1.836524        -0.652555         1.210493
 C        -0.485622        -1.087371         0.517230
 O         0.441240        -1.948427         1.142977
 C        -1.316562        -1.549869        -0.765333
 O        -1.888957        -2.850880        -0.702056
 H         1.811980         0.955627        -1.080149
 H         1.722184         1.404309         0.593584
 H         2.123705        -0.273632         0.139205
 H        -0.979612         1.699195        -1.347932
 H        -3.073670        -0.085787        -0.563742
 H        -1.691776         0.213652         1.923093
 H        -2.480533        -1.515063         1.510545
 H         0.237646        -2.905956         0.758199
 H        -0.728650        -1.494777        -1.721172
 H        -2.925014        -2.813401        -0.651860
