19
Iteration:  4286charge 0 multiplicity 1
 C         1.568283         0.599286         0.040957
 C         0.162561         0.085111        -0.266336
 C        -0.694715         0.342836        -1.258836
 C        -2.002457        -0.428001        -0.874985
 C        -2.023238        -0.219625         0.814819
 C        -0.607305        -0.927496         0.584338
 O         0.191830        -1.622362         1.625840
 C        -1.257175        -1.839674        -0.550837
 O        -2.024934        -2.899941        -0.142551
 H         1.621126         1.525938         0.711077
 H         2.196761        -0.216723         0.409019
 H         2.124704         0.807933        -0.862565
 H        -0.633463         1.240352        -1.934750
 H        -2.909992        -0.404397        -1.487715
 H        -1.911190         0.820746         1.266067
 H        -2.737145        -0.852749         1.298427
 H         1.144634        -1.227878         1.811520
 H        -0.590135        -2.119113        -1.333087
 H        -1.703332        -3.433554         0.663183
