19
Iteration:  1362charge 0 multiplicity 1
 C         1.568174         0.503358        -0.137740
 C         0.054094         0.233975         0.015566
 C        -1.004868         0.762683        -0.586514
 C        -2.122912        -0.288171        -0.339845
 C        -1.850695        -0.647415         1.111518
 C        -0.482360        -1.061410         0.574209
 O         0.427108        -1.896152         1.207795
 C        -1.312888        -1.542810        -0.802959
 O        -1.875955        -2.811529        -0.737742
 H         1.680419         1.628940         0.046627
 H         2.111278         0.026329         0.718411
 H         1.955534         0.273410        -1.157016
 H        -1.037950         1.703648        -1.056535
 H        -3.119664         0.073261        -0.562465
 H        -1.862883        -0.013763         1.986346
 H        -2.521594        -1.486176         1.540370
 H         0.191993        -2.792398         0.866258
 H        -0.895191        -1.514653        -1.828242
 H        -2.455462        -2.959563         0.042371
