19
Iteration:  2794charge 0 multiplicity 1
 C         1.487759         0.645728         0.058544
 C         0.064135         0.305637         0.013778
 C        -1.210836         0.902359        -0.169304
 C        -2.200821        -0.196302         0.004315
 C        -1.640486        -0.832850         1.270044
 C        -0.368405        -1.131166         0.404090
 O         0.355542        -2.332280         0.750796
 C        -1.322580        -1.392369        -0.862995
 O        -1.894360        -2.682713        -0.986396
 H         2.092514        -0.287130        -0.137973
 H         1.696437         1.428294        -0.682634
 H         1.726855         1.041243         1.073845
 H        -1.125941         1.917127        -0.646668
 H        -3.248077         0.019991        -0.065715
 H        -1.557270        -0.007494         2.026647
 H        -2.229201        -1.627154         1.649244
 H         1.051842        -2.464660         0.150329
 H        -0.854741        -1.042151        -1.814456
 H        -1.603787        -3.222303        -0.292042
