19
Iteration:  3039
 C         1.552525         0.635421         0.130339
 C         0.092950         0.144958        -0.058000
 C        -1.068105         0.713929        -0.509744
 C        -2.121784        -0.298002        -0.103938
 C        -1.703422        -0.838638         1.255061
 C        -0.466329        -1.201402         0.406482
 O         0.677402        -1.885892         0.980397
 C        -1.408022        -1.455177        -0.881622
 O        -2.213439        -2.598154        -0.843218
 H         2.216224        -0.171151         0.017883
 H         1.713536         1.520760        -0.489445
 H         1.554476         0.984348         1.168576
 H        -1.285658         1.600474        -1.032009
 H        -3.172727        -0.190130        -0.227066
 H        -1.493017        -0.175731         2.038195
 H        -2.284897        -1.750579         1.568026
 H         0.269041        -2.816509         1.113826
 H        -0.865358        -1.185662        -1.869896
 H        -1.569897        -3.338913        -1.226297
