19
Iteration:   290
 C         1.486746         0.814559         0.228117
 C         0.085668         0.247243         0.068858
 C        -1.070008         0.779784        -0.335277
 C        -2.143724        -0.255113         0.017667
 C        -1.487667        -1.021684         1.271206
 C        -0.295936        -1.212949         0.288581
 O         0.682588        -2.174772         0.608329
 C        -1.553295        -1.412615        -0.878623
 O        -2.361266        -2.582848        -0.858945
 H         1.565900         1.739998         0.869712
 H         2.168791         0.131234         0.704309
 H         1.913568         0.982896        -0.760492
 H        -1.177752         1.840847        -0.454918
 H        -3.182634         0.102434        -0.051920
 H        -1.201283        -0.368065         2.089285
 H        -2.026659        -1.952052         1.526967
 H         0.783082        -2.097165         1.643656
 H        -1.255111        -1.125592        -1.885353
 H        -1.957575        -3.272757        -1.491840
