19
Iteration:  1451charge 0 multiplicity 1
 C         1.514857         0.722957         0.072389
 C         0.146779         0.115161        -0.153482
 C        -0.958461         0.692327        -0.687107
 C        -2.131997        -0.210155        -0.329719
 C        -1.730967        -0.581436         1.177423
 C        -0.441663        -1.110375         0.474189
 O         0.360862        -2.053193         1.138471
 C        -1.414016        -1.615900        -0.741809
 O        -2.046955        -2.823670        -0.648589
 H         1.659226         1.823574        -0.288546
 H         1.788283         0.661352         1.110417
 H         2.268194         0.187658        -0.600609
 H        -1.065781         1.720888        -1.128208
 H        -3.071225         0.206392        -0.682614
 H        -1.552916         0.262409         1.922932
 H        -2.367120        -1.416553         1.614945
 H         1.137016        -1.625496         1.575399
 H        -1.015578        -1.349233        -1.792033
 H        -1.588165        -3.470510        -1.183971
