19
Iteration:   949charge 0 multiplicity 1
 C         1.520820         0.615837        -0.022734
 C         0.037181         0.312496         0.128206
 C        -1.055408         0.762689        -0.508289
 C        -2.096716        -0.297107        -0.300304
 C        -1.688220        -0.929823         1.218784
 C        -0.388036        -1.164178         0.481130
 O         0.657655        -1.914582         1.018453
 C        -1.321328        -1.569484        -0.858287
 O        -2.289333        -2.559424        -0.796403
 H         1.766951         1.610310         0.512241
 H         2.173613        -0.062622         0.398416
 H         1.883672         0.531593        -1.106063
 H        -1.433420         1.757772        -0.705423
 H        -3.112292        -0.260476        -0.652846
 H        -1.629460        -0.211981         1.965081
 H        -2.276063        -1.847698         1.435856
 H         0.390027        -2.446641         1.730530
 H        -0.728127        -1.674191        -1.802275
 H        -1.989847        -3.428155        -0.868452
