19
Iteration:  3546
 C         1.501046         0.655393         0.040065
 C         0.081742         0.177557        -0.054843
 C        -0.983317         0.681645        -0.755878
 C        -1.997970        -0.325528        -0.505805
 C        -1.889431        -0.569875         1.064311
 C        -0.481398        -1.106121         0.508323
 O         0.348010        -1.957156         1.171783
 C        -1.204454        -1.690346        -0.751705
 O        -1.990341        -2.720891        -0.442131
 H         1.805011         1.249957        -0.828794
 H         1.790010         1.267087         0.896548
 H         2.247578        -0.123671         0.141603
 H        -0.951174         1.193895        -1.654026
 H        -2.948960        -0.250057        -0.962156
 H        -1.841428         0.311726         1.674166
 H        -2.547170        -1.322364         1.586785
 H         0.638152        -1.488623         2.069810
 H        -0.736524        -1.689153        -1.711478
 H        -2.454933        -3.041872        -1.284161
