19
Iteration:  4311charge 0 multiplicity 1
 C         1.539341         0.483930        -0.058148
 C         0.155686         0.097609        -0.279391
 C        -0.842335         0.536027        -1.133594
 C        -1.909282        -0.494910        -0.784251
 C        -1.899314        -0.301653         0.660186
 C        -0.565384        -0.989928         0.582776
 O         0.039822        -1.543181         1.698978
 C        -1.128297        -1.798821        -0.571941
 O        -2.015188        -2.880028        -0.122610
 H         1.802917         0.750715         1.073120
 H         2.253130        -0.294298        -0.473660
 H         1.875515         1.389638        -0.657831
 H        -0.741179         1.054168        -2.086894
 H        -2.862182        -0.570559        -1.261436
 H        -1.854229         0.824679         0.944554
 H        -2.688884        -0.865639         1.135682
 H         1.003366        -1.481979         1.783448
 H        -0.360364        -2.186687        -1.351173
 H        -2.004291        -3.096963         0.833526
