19
Iteration:  2234charge 0 multiplicity 1
 C         1.491463         0.746601         0.216185
 C         0.129833         0.150078        -0.095092
 C        -1.047295         0.809888        -0.361738
 C        -2.198744        -0.171807         0.009393
 C        -1.571615        -0.831297         1.246668
 C        -0.422258        -1.196121         0.328429
 O         0.556150        -2.109133         0.701420
 C        -1.479138        -1.398114        -0.823894
 O        -2.066635        -2.738417        -0.751916
 H         2.174023        -0.031873         0.565172
 H         1.971384         1.277773        -0.679526
 H         1.379285         1.458925         1.065636
 H        -1.250042         1.792712        -0.743379
 H        -3.230346         0.054087        -0.107787
 H        -1.525566        -0.158271         2.159012
 H        -2.263946        -1.709175         1.496107
 H         0.509689        -2.971994         0.301667
 H        -1.088292        -1.222257        -1.828170
 H        -2.291199        -3.106417        -1.540786
