19
Iteration:   517charge 0 multiplicity 1
 C         1.484129         0.614476         0.143131
 C         0.046898         0.233398         0.011235
 C        -1.005767         0.837874        -0.323467
 C        -2.163003        -0.209111        -0.060338
 C        -1.740090        -0.787145         1.321733
 C        -0.495823        -1.151372         0.337268
 O         0.463941        -2.135924         0.545075
 C        -1.433638        -1.355151        -0.832630
 O        -1.782735        -2.774326        -0.691173
 H         1.980781         1.102589        -0.756275
 H         1.645657         1.361650         0.935196
 H         2.284556        -0.098341         0.285850
 H        -1.230808         1.874186        -0.574068
 H        -3.164894         0.046816        -0.387630
 H        -1.576795        -0.092738         2.109977
 H        -2.236949        -1.638172         1.798659
 H        -0.045990        -2.954279         0.718463
 H        -1.124011        -1.173193        -1.904270
 H        -2.692460        -2.928437        -0.937736
