19
Iteration:  1712
 C         1.544253         0.757719         0.121449
 C         0.121206         0.218481        -0.126550
 C        -0.972738         0.867701        -0.468864
 C        -2.053498        -0.213257        -0.355106
 C        -1.782397        -0.740852         1.091877
 C        -0.427538        -1.159256         0.389378
 O         0.372484        -2.211637         0.906167
 C        -1.382382        -1.613579        -0.803707
 O        -2.080740        -2.703552        -0.513649
 H         1.550586         1.479362         0.978455
 H         2.192184        -0.110088         0.262587
 H         1.955535         1.320619        -0.716654
 H        -1.299664         1.828155        -0.857339
 H        -3.075885         0.159492        -0.610533
 H        -1.744934        -0.032125         1.968399
 H        -2.418158        -1.567261         1.293096
 H         0.850068        -1.716653         1.597278
 H        -0.860610        -1.535594        -1.761471
 H        -1.348619        -3.460831        -0.496643
