19
Iteration:  2869
 C         1.508286         0.663202        -0.013072
 C         0.033685         0.225263         0.214777
 C        -1.081687         0.754017        -0.251565
 C        -2.114481        -0.309056        -0.187669
 C        -1.708565        -0.959253         1.177815
 C        -0.376206        -1.163020         0.469944
 O         0.549586        -2.062226         0.909892
 C        -1.268232        -1.461462        -0.914400
 O        -2.169246        -2.540606        -1.016251
 H         1.363046         1.152847        -0.970109
 H         2.022907         1.100916         0.763495
 H         1.953333        -0.224913        -0.299202
 H        -1.420156         1.804336        -0.226434
 H        -3.137547        -0.199861        -0.452469
 H        -1.648708        -0.318263         2.092525
 H        -2.065338        -1.910683         1.629252
 H         1.475355        -1.697533         1.238617
 H        -0.880063        -1.148371        -1.850264
 H        -2.623916        -2.775174        -0.063291
