19
Iteration:  1875
 C         1.523895         0.507002        -0.178324
 C         0.015465         0.267136        -0.012932
 C        -1.049655         0.905992        -0.462309
 C        -2.166329        -0.137074        -0.163377
 C        -1.774575        -0.809691         1.266477
 C        -0.477808        -1.141495         0.487792
 O         0.355733        -2.052640         1.032873
 C        -1.322366        -1.470333        -0.815237
 O        -1.708842        -2.755484        -0.719420
 H         1.838916         0.041097        -1.093948
 H         1.865829         1.591863        -0.101123
 H         2.126665        -0.012973         0.563901
 H        -1.098046         1.926998        -0.870063
 H        -3.248841         0.076198        -0.290743
 H        -1.727263        -0.163228         2.154857
 H        -2.305052        -1.732890         1.359496
 H        -0.183473        -2.894198         1.095204
 H        -0.996844        -1.358714        -1.860173
 H        -2.554460        -2.863132        -1.305614
