19
Iteration:  4607
 C         1.699619         0.461377        -0.099998
 C         0.232650         0.064863        -0.330734
 C        -0.755318         0.210495        -1.319581
 C        -1.952602        -0.628085        -0.761820
 C        -1.969297        -0.122250         0.625929
 C        -0.529131        -0.830125         0.683359
 O        -0.058325        -1.216099         1.905743
 C        -1.168680        -1.942330        -0.504292
 O        -2.127563        -2.961232        -0.209413
 H         2.444342         0.103161        -0.825835
 H         1.700937         1.540209        -0.274652
 H         2.143222         0.278921         0.877861
 H        -0.531057         0.708116        -2.294164
 H        -2.859373        -0.795825        -1.418855
 H        -1.786621         0.930199         0.701687
 H        -2.741547        -0.688725         1.339012
 H         0.878471        -0.794211         2.093148
 H        -0.347259        -2.238901        -1.098110
 H        -1.600183        -3.629791         0.398026
