19
Iteration:  3573
 C         1.532650         0.554562         0.036089
 C         0.107583         0.184808        -0.138878
 C        -0.978548         0.736458        -0.840167
 C        -2.014809        -0.236201        -0.526789
 C        -1.910609        -0.552612         1.018736
 C        -0.443824        -1.050149         0.572033
 O         0.467555        -1.874075         1.274057
 C        -1.349750        -1.683137        -0.708199
 O        -2.026994        -2.887749        -0.481218
 H         1.799423         1.614657        -0.088259
 H         2.000755         0.301599         0.996400
 H         2.295476         0.133680        -0.696604
 H        -1.116985         1.804150        -1.243651
 H        -3.109269        -0.001998        -0.747041
 H        -2.083451         0.201688         1.855945
 H        -2.622927        -1.369015         1.172761
 H         0.293335        -1.813374         2.295705
 H        -0.828761        -1.632857        -1.708780
 H        -1.947521        -3.362815        -1.342481
