19
Iteration:  4626
 C         1.553540         0.492635        -0.183706
 C         0.205911        -0.015885        -0.296639
 C        -0.623210         0.109341        -1.343454
 C        -1.855473        -0.555648        -0.925206
 C        -1.967710        -0.194530         0.731928
 C        -0.646029        -0.854804         0.690032
 O        -0.007811        -1.178615         1.966263
 C        -1.160707        -1.891793        -0.402606
 O        -2.101866        -2.873776        -0.193603
 H         2.119190         0.376282        -1.160435
 H         1.709561         1.445828         0.271773
 H         2.092545        -0.196339         0.485924
 H        -0.588126         0.728713        -2.303621
 H        -2.765013        -0.518190        -1.614223
 H        -2.082043         0.871521         0.879933
 H        -2.678438        -0.896957         1.167983
 H         1.014828        -0.922568         1.922580
 H        -0.464708        -2.203510        -1.201445
 H        -1.659841        -3.769752         0.106316
