19
Iteration:  4193
 C         1.620009         0.584331        -0.067144
 C         0.151819         0.131513        -0.210781
 C        -0.678106         0.338844        -1.249746
 C        -1.947213        -0.364780        -0.734853
 C        -2.008072        -0.380480         0.826467
 C        -0.553963        -0.954552         0.615811
 O         0.202239        -1.505762         1.627625
 C        -1.312455        -1.794625        -0.581133
 O        -2.025890        -2.884294        -0.118981
 H         2.016571         0.682841        -1.041400
 H         1.842797         1.590275         0.298391
 H         2.344100        -0.053366         0.489415
 H        -0.740388         1.181959        -2.004871
 H        -2.855734        -0.159803        -1.277667
 H        -2.134826         0.463533         1.559028
 H        -2.716806        -1.209990         0.962716
 H        -0.243886        -2.207937         2.003308
 H        -0.630233        -2.024353        -1.413595
 H        -1.931863        -3.599961        -0.741445
