19
Iteration:   750charge 0 multiplicity 1
 C         1.576487         0.775970         0.050080
 C         0.183694         0.186483        -0.024388
 C        -1.108709         0.814566        -0.338692
 C        -2.151952        -0.302768        -0.061404
 C        -1.563836        -0.808085         1.292539
 C        -0.352930        -1.135890         0.427507
 O         0.600538        -2.116022         0.715019
 C        -1.504524        -1.499977        -0.828818
 O        -2.271722        -2.705195        -0.887170
 H         2.223254         0.023649         0.731380
 H         1.978520         0.869566        -0.947892
 H         1.398048         1.792346         0.548142
 H        -1.312156         1.882371        -0.583150
 H        -3.235778        -0.054831        -0.253600
 H        -1.645689        -0.004665         2.036103
 H        -2.126520        -1.583259         1.718511
 H         0.460149        -2.368500         1.692976
 H        -1.139061        -1.161738        -1.870527
 H        -1.762022        -3.488907        -0.415651
