19
Iteration:   260
 C         1.531478         0.772225         0.085929
 C         0.093725         0.212011         0.074862
 C        -1.119538         0.857362        -0.111924
 C        -2.147509        -0.249145        -0.080332
 C        -1.705408        -1.073112         1.196122
 C        -0.301458        -1.218633         0.327329
 O         0.745877        -2.069804         0.609059
 C        -1.400129        -1.442156        -0.834280
 O        -2.296703        -2.550745        -0.752565
 H         1.485525         1.798396         0.264409
 H         1.963196         0.186937         0.911833
 H         1.952416         0.514349        -0.931360
 H        -1.015321         1.950780        -0.268302
 H        -3.151374         0.068210        -0.308625
 H        -1.604210        -0.465837         2.152177
 H        -2.236579        -2.037394         1.421614
 H         0.439366        -2.966312         0.770928
 H        -0.988940        -1.304417        -1.874075
 H        -2.401620        -2.977380        -1.615762
