19
Iteration:  2233
 C         1.492647         0.744346         0.219503
 C         0.124778         0.164291        -0.094937
 C        -1.039053         0.809755        -0.354339
 C        -2.194604        -0.174921         0.006058
 C        -1.575627        -0.819880         1.242259
 C        -0.426289        -1.204212         0.329307
 O         0.560517        -2.113440         0.698954
 C        -1.479577        -1.399998        -0.819527
 O        -2.068177        -2.744352        -0.747651
 H         2.153150        -0.036457         0.542471
 H         1.962882         1.278195        -0.689131
 H         1.365569         1.439535         1.087180
 H        -1.270143         1.800945        -0.789051
 H        -3.235272         0.061942        -0.107579
 H        -1.515234        -0.165658         2.162069
 H        -2.241616        -1.697986         1.481896
 H         0.500932        -2.940475         0.281604
 H        -1.093366        -1.197121        -1.829776
 H        -2.287120        -3.117804        -1.580054
