19
Iteration:  2790charge 0 multiplicity 1
 C         1.465871         0.641575         0.068081
 C         0.022998         0.310529         0.017759
 C        -1.203324         0.917190        -0.186757
 C        -2.168848        -0.190806        -0.010653
 C        -1.645126        -0.820461         1.268400
 C        -0.384808        -1.141669         0.404753
 O         0.383975        -2.341332         0.752162
 C        -1.287773        -1.375027        -0.852399
 O        -1.915151        -2.672455        -0.961764
 H         2.131179        -0.221766        -0.004863
 H         1.813233         1.253147        -0.769980
 H         1.713673         1.046848         1.006601
 H        -1.215746         2.019154        -0.548099
 H        -3.260872        -0.005094        -0.095589
 H        -1.586130        -0.045781         1.991730
 H        -2.221600        -1.807227         1.491377
 H         0.992418        -2.620289        -0.046591
 H        -0.924441        -1.018955        -1.783528
 H        -1.497900        -3.343533        -0.282463
