19
Iteration:  2738charge 0 multiplicity 1
 C         1.500633         0.706269         0.200251
 C         0.099074         0.270759         0.121941
 C        -1.069904         0.866886        -0.170043
 C        -2.105533        -0.227824        -0.153977
 C        -1.728058        -0.989450         1.201131
 C        -0.360353        -1.197645         0.382530
 O         0.695986        -2.107819         0.689049
 C        -1.474395        -1.464001        -0.860080
 O        -2.259568        -2.635477        -0.887594
 H         2.035425         0.498534         1.177579
 H         2.092552         0.197954        -0.567241
 H         1.606895         1.789516         0.044132
 H        -1.175689         1.980687        -0.461299
 H        -3.137162         0.055840        -0.363845
 H        -1.638307        -0.365354         2.065007
 H        -2.467427        -1.775041         1.275771
 H         1.169710        -2.334738        -0.131009
 H        -1.014589        -1.273045        -1.855757
 H        -1.757630        -3.326991        -0.550051
