19
Iteration:  1179
 C         1.478481         0.594467        -0.188730
 C         0.109323         0.246931         0.000265
 C        -1.044366         0.831070        -0.489596
 C        -2.060201        -0.272053        -0.332299
 C        -1.849221        -0.715888         1.178545
 C        -0.470731        -1.123830         0.486334
 O         0.380514        -2.113968         1.113818
 C        -1.300679        -1.445414        -0.786522
 O        -1.870131        -2.718063        -0.571258
 H         1.928878         0.639019        -1.249309
 H         1.860146         1.528890         0.081146
 H         2.144136         0.004164         0.525658
 H        -1.293124         1.858077        -0.905444
 H        -3.119808        -0.099574        -0.615114
 H        -1.696217         0.026106         2.012992
 H        -2.481826        -1.577434         1.585069
 H         0.496810        -2.777711         0.479233
 H        -0.694236        -1.577671        -1.693894
 H        -2.618666        -2.958828        -1.177430
