19
Iteration:  3944
 C         1.619779         0.684470        -0.042697
 C         0.197013         0.143360        -0.258624
 C        -0.826312         0.489810        -1.071715
 C        -2.017724        -0.364424        -0.658386
 C        -1.855351        -0.287200         0.885364
 C        -0.505869        -0.969830         0.601465
 O         0.085457        -1.768955         1.597329
 C        -1.331829        -1.799791        -0.698339
 O        -2.019779        -2.962022        -0.286837
 H         1.949911         1.172899        -0.958540
 H         1.768851         1.404696         0.758379
 H         2.385067        -0.111622         0.218970
 H        -0.931799         1.287582        -1.884250
 H        -2.978642        -0.114883        -1.022347
 H        -1.771680         0.698218         1.429520
 H        -2.615912        -0.849147         1.357171
 H         0.979286        -2.059104         1.372516
 H        -0.705625        -1.997179        -1.650393
 H        -1.464625        -3.362226         0.470138
