19
Iteration:  2105charge 0 multiplicity 1
 C         1.453339         0.618100        -0.152820
 C         0.032420         0.226870         0.064652
 C        -1.020837         0.811175        -0.399674
 C        -2.121030        -0.195531        -0.043806
 C        -1.786300        -0.819131         1.340137
 C        -0.401678        -1.189831         0.480530
 O         0.600200        -2.084286         0.993485
 C        -1.348856        -1.425757        -0.764703
 O        -2.021800        -2.679295        -0.927590
 H         1.361855         1.455585        -0.879295
 H         1.915420         0.877469         0.807856
 H         1.902079        -0.274561        -0.567396
 H        -1.225349         1.828868        -0.913873
 H        -3.115010         0.103950        -0.362307
 H        -1.717993        -0.293168         2.304979
 H        -2.194556        -1.836016         1.289301
 H         0.351839        -3.034887         0.772217
 H        -0.808466        -1.287204        -1.734769
 H        -2.361488        -2.496376        -1.928303
