19
Iteration:   415charge 0 multiplicity 1
 C         1.485581         0.594758        -0.120443
 C         0.027101         0.301343         0.142072
 C        -1.103081         0.793994        -0.230139
 C        -2.179998        -0.251168         0.079022
 C        -1.586570        -0.933279         1.354477
 C        -0.373877        -1.188535         0.441473
 O         0.542222        -2.115383         0.756540
 C        -1.384204        -1.358953        -0.793484
 O        -2.110015        -2.559037        -1.076113
 H         2.245648        -0.127668        -0.080498
 H         1.723450         1.007480        -1.160858
 H         1.881248         1.363624         0.590117
 H        -1.297511         1.597083        -0.910741
 H        -3.274985        -0.254207        -0.006922
 H        -1.309630        -0.259475         2.253824
 H        -2.147426        -1.914411         1.551793
 H         0.300353        -2.694889         1.526208
 H        -1.113180        -0.920175        -1.778609
 H        -1.507233        -3.361859        -1.231879
