19
Iteration:  4657
 C         1.677480         0.496775        -0.108058
 C         0.245689         0.067375        -0.300597
 C        -0.657965         0.218016        -1.273731
 C        -1.860478        -0.614618        -0.943078
 C        -2.092317        -0.237369         0.557503
 C        -0.598552        -0.864031         0.641584
 O        -0.029369        -1.188854         1.882004
 C        -1.191570        -1.934342        -0.468869
 O        -2.101400        -2.866801         0.065382
 H         1.962730         1.384817        -0.746374
 H         2.005209         0.871775         0.889710
 H         2.276839        -0.395619        -0.438134
 H        -0.476634         0.760949        -2.256638
 H        -2.606912        -0.607966        -1.778368
 H        -2.223912         0.862974         0.645522
 H        -2.707786        -0.887571         1.070567
 H         0.802965        -1.519555         1.698954
 H        -0.449172        -2.300096        -1.291110
 H        -1.740813        -3.709163        -0.039587
