19
Iteration:  2286charge 0 multiplicity 1
 C         1.514397         0.707145        -0.048099
 C         0.101141         0.299855         0.235451
 C        -1.046830         0.914283        -0.155432
 C        -2.183994        -0.241825        -0.122710
 C        -1.759166        -0.946100         1.249774
 C        -0.442894        -1.160049         0.383669
 O         0.627227        -2.155443         0.682943
 C        -1.309458        -1.466088        -0.858709
 O        -2.081107        -2.715120        -0.840447
 H         2.155780         0.578037         0.771664
 H         1.855602        -0.014098        -0.830506
 H         1.594481         1.731544        -0.461213
 H        -1.329518         1.952616        -0.502781
 H        -3.176800         0.172324        -0.322971
 H        -1.594026        -0.286630         2.101802
 H        -2.302215        -1.826892         1.491730
 H         0.428001        -2.638443         1.434988
 H        -0.929463        -1.278209        -1.884246
 H        -2.869222        -2.617546        -1.366093
