19
Iteration:  4624
 C         1.565893         0.502602        -0.181640
 C         0.203635        -0.013749        -0.308303
 C        -0.623366         0.106461        -1.332417
 C        -1.860063        -0.573788        -0.919821
 C        -1.973870        -0.183994         0.740059
 C        -0.626191        -0.855717         0.674849
 O        -0.011363        -1.178912         1.964702
 C        -1.162930        -1.890315        -0.405768
 O        -2.098764        -2.880156        -0.205085
 H         2.118044         0.279873        -1.130415
 H         1.759973         1.484808         0.261086
 H         2.057601        -0.187391         0.563025
 H        -0.677434         0.700831        -2.257372
 H        -2.740404        -0.541080        -1.564122
 H        -2.111875         0.911282         0.906150
 H        -2.679594        -0.767804         1.201008
 H         0.960129        -0.912299         1.964570
 H        -0.493276        -2.221233        -1.271732
 H        -1.688104        -3.752004         0.130001
