19
Iteration:  2063charge 0 multiplicity 1
 C         1.485901         0.537293        -0.089252
 C         0.053746         0.274500         0.021008
 C        -1.061681         0.895156        -0.215363
 C        -2.176153        -0.202236        -0.188566
 C        -1.780963        -0.903859         1.191855
 C        -0.399274        -1.132726         0.373459
 O         0.543838        -2.074744         0.870232
 C        -1.324962        -1.429757        -0.827295
 O        -1.969054        -2.665237        -0.687316
 H         1.866685         1.601718         0.100110
 H         2.128336        -0.120754         0.461432
 H         1.741658         0.302518        -1.128670
 H        -1.291360         2.027191        -0.206803
 H        -3.184608        -0.129912        -0.627946
 H        -1.597854        -0.183908         1.955034
 H        -2.401862        -1.761828         1.414982
 H        -0.007700        -2.713422         1.264845
 H        -1.163680        -1.099240        -1.879020
 H        -1.799414        -3.402019        -1.343114
