19
Iteration:  3756
 C         1.589028         0.631819         0.058537
 C         0.156407         0.156833        -0.156628
 C        -0.910693         0.600335        -1.019576
 C        -2.003970        -0.363693        -0.644779
 C        -1.856844        -0.506414         0.966645
 C        -0.491099        -0.991876         0.576273
 O         0.320754        -1.763159         1.375902
 C        -1.263467        -1.703755        -0.653885
 O        -2.009060        -2.880277        -0.327582
 H         1.640279         1.405864        -0.680448
 H         1.662593         0.939744         1.074424
 H         2.227891        -0.270064        -0.214069
 H        -1.055498         1.622890        -1.359846
 H        -2.985297        -0.239666        -1.248586
 H        -1.952311         0.475909         1.501956
 H        -2.633158        -1.155159         1.398023
 H         0.279186        -2.676316         1.082749
 H        -0.769804        -1.935917        -1.637651
 H        -2.985065        -2.615995        -0.067074
