19
Iteration:  1280
 C         1.509143         0.740922         0.089033
 C         0.148649         0.239628        -0.057127
 C        -0.980058         0.684170        -0.609883
 C        -2.079919        -0.271045        -0.390521
 C        -1.836792        -0.710070         1.092325
 C        -0.438451        -1.125856         0.534645
 O         0.592244        -1.992510         0.951886
 C        -1.303742        -1.579050        -0.744305
 O        -2.233269        -2.716924        -0.533647
 H         1.812960         1.358701        -0.746589
 H         1.710758         1.279010         1.012250
 H         2.171436        -0.105948         0.209914
 H        -1.190990         1.632963        -0.992843
 H        -2.978053         0.155002        -0.856387
 H        -1.955371         0.110594         1.860884
 H        -2.297303        -1.623923         1.191098
 H         0.264478        -2.972373         0.887809
 H        -0.760038        -1.636958        -1.735642
 H        -1.710017        -3.450528        -0.364395
