19
Iteration:   366
 C         1.500674         0.697364        -0.031745
 C         0.155308         0.230738         0.128979
 C        -1.084494         0.930580        -0.087937
 C        -2.148252        -0.148471         0.026314
 C        -1.817068        -0.990389         1.216801
 C        -0.449402        -1.199397         0.323722
 O         0.427601        -2.228882         0.476934
 C        -1.422686        -1.373014        -0.870269
 O        -1.943440        -2.662883        -0.728578
 H         2.241098         0.356816         0.826611
 H         2.019725         0.242036        -0.843080
 H         1.731871         1.748228        -0.159124
 H        -1.178329         2.031042        -0.526258
 H        -3.163332         0.271202        -0.065921
 H        -1.781973        -0.542789         2.176102
 H        -2.182463        -1.995187         1.176357
 H         0.979495        -2.094642         1.229359
 H        -0.951249        -1.230295        -1.839390
 H        -1.241002        -3.156048        -0.309172
