19
Iteration:  3903
 C         1.561434         0.489094        -0.163710
 C         0.092913         0.171021        -0.153314
 C        -0.849127         0.514228        -1.096064
 C        -1.937025        -0.316165        -0.601586
 C        -1.906110        -0.397755         0.928091
 C        -0.552512        -0.993297         0.607595
 O         0.117561        -1.685232         1.644256
 C        -1.220733        -1.701388        -0.656299
 O        -1.938351        -2.907405        -0.386329
 H         2.033682        -0.175872        -0.912123
 H         1.661941         1.533743        -0.454132
 H         1.997277         0.320445         0.797964
 H        -0.954300         1.569962        -1.542224
 H        -2.866216        -0.139589        -1.094482
 H        -2.139834         0.549426         1.450723
 H        -2.637329        -1.209377         1.290360
 H         0.951279        -1.990455         1.099473
 H        -0.549956        -1.866786        -1.430348
 H        -1.601052        -3.161240         0.437635
