19
Iteration:  4927charge 0 multiplicity 1
 C         1.608300         0.500978        -0.107246
 C         0.205483         0.027143        -0.357192
 C        -0.558553        -0.023379        -1.441400
 C        -1.840484        -0.626572        -1.000326
 C        -2.010603        -0.106629         0.464100
 C        -0.551176        -0.743962         0.700123
 O        -0.123303        -1.142966         1.873353
 C        -1.149333        -1.942679        -0.371528
 O        -1.979424        -3.008181         0.136076
 H         1.674277         1.561525        -0.175939
 H         1.938151         0.412312         0.977700
 H         2.452389         0.056948        -0.678340
 H        -0.338667         0.203007        -2.397475
 H        -2.715701        -0.677166        -1.683664
 H        -2.187880         0.961298         0.743284
 H        -2.743018        -0.535069         1.006182
 H        -0.352142        -0.385372         2.514319
 H        -0.514081        -2.464472        -1.116939
 H        -2.976881        -2.597778         0.180940
