19
Iteration:  3859
 C         1.581699         0.373023        -0.136199
 C         0.147030         0.209193        -0.161329
 C        -0.856767         0.656182        -0.970289
 C        -2.030013        -0.375160        -0.645864
 C        -1.997961        -0.469082         0.918602
 C        -0.542574        -0.988678         0.551460
 O         0.173732        -1.667755         1.534716
 C        -1.185818        -1.697888        -0.643985
 O        -1.920738        -2.877237        -0.362853
 H         2.037426        -0.420920         0.498470
 H         1.945301         0.392057        -1.153425
 H         1.883904         1.269358         0.351773
 H        -1.209937         1.669212        -1.381269
 H        -2.940409        -0.351153        -1.172691
 H        -1.953089         0.447392         1.585093
 H        -2.762863        -1.206045         1.272213
 H         1.170294        -1.544976         1.452058
 H        -0.688323        -1.804989        -1.547358
 H        -1.885253        -3.083079         0.535889
