19
Iteration:   713charge 0 multiplicity 1
 C         1.408992         0.603459        -0.091228
 C         0.037888         0.247959         0.070772
 C        -1.117038         0.921510        -0.242202
 C        -2.108636        -0.178656        -0.127530
 C        -1.705611        -0.924295         1.195897
 C        -0.412838        -1.118805         0.400728
 O         0.492415        -2.288589         0.676495
 C        -1.366347        -1.312677        -0.821451
 O        -1.977117        -2.644968        -0.678132
 H         2.143226         0.433282         0.675743
 H         1.836113         0.066502        -0.961082
 H         1.622581         1.626903        -0.326331
 H        -1.072598         1.988578        -0.443274
 H        -3.167650        -0.020266        -0.197306
 H        -1.800404        -0.267965         2.102602
 H        -2.158937        -1.979049         1.110759
 H         0.754753        -2.326587         1.636387
 H        -1.015442        -1.139784        -1.835420
 H        -1.189809        -3.173242        -0.241430
