19
Iteration:  3761
 C         1.588179         0.656393         0.049605
 C         0.162126         0.157081        -0.176108
 C        -0.918069         0.563429        -0.997369
 C        -2.029160        -0.406782        -0.667530
 C        -1.872022        -0.525305         0.964177
 C        -0.487870        -0.986308         0.558743
 O         0.283799        -1.786888         1.424874
 C        -1.279999        -1.682920        -0.707565
 O        -2.000729        -2.823761        -0.320163
 H         1.625689         1.573802        -0.603616
 H         1.951206         0.764651         1.143433
 H         2.227884        -0.083002        -0.415747
 H        -0.904824         1.577597        -1.425292
 H        -2.905566        -0.307895        -1.239380
 H        -1.807289         0.449401         1.573636
 H        -2.498584        -1.177365         1.605112
 H         0.354815        -2.708505         1.057393
 H        -0.694007        -1.916522        -1.579748
 H        -2.796743        -2.573391         0.061572
