19
Iteration:  1716
 C         1.532694         0.741811         0.121017
 C         0.122740         0.219943        -0.116112
 C        -0.980063         0.867584        -0.498931
 C        -2.052716        -0.226130        -0.350962
 C        -1.764000        -0.779445         1.101209
 C        -0.432743        -1.162477         0.407028
 O         0.373901        -2.202048         0.880360
 C        -1.376012        -1.570370        -0.829968
 O        -2.073682        -2.691927        -0.486672
 H         1.555941         1.508552         1.000368
 H         2.227105        -0.038827         0.436797
 H         2.000523         1.296530        -0.732523
 H        -1.213662         1.874965        -0.929161
 H        -3.036757         0.164390        -0.582022
 H        -1.914642        -0.020049         1.919830
 H        -2.441058        -1.664097         1.317622
 H         0.835016        -1.747973         1.645167
 H        -0.896127        -1.639158        -1.871190
 H        -1.486052        -3.395702        -0.385220
