19
Iteration:  3868charge 0 multiplicity 1
 C         1.666272         0.369446        -0.140481
 C         0.134814         0.195681        -0.158419
 C        -0.942567         0.654750        -0.857948
 C        -2.011504        -0.356773        -0.646980
 C        -2.001968        -0.467276         0.855896
 C        -0.594095        -0.989217         0.601224
 O         0.188258        -1.638835         1.527051
 C        -1.195755        -1.728529        -0.699465
 O        -1.939596        -2.893502        -0.341360
 H         2.301424        -0.465706         0.148897
 H         2.069631         0.616816        -1.097677
 H         1.950273         1.236482         0.506148
 H        -1.012034         1.500476        -1.621284
 H        -2.932422        -0.222966        -1.161257
 H        -2.217917         0.563640         1.352333
 H        -2.564272        -1.272813         1.257480
 H         1.162523        -1.540681         1.313709
 H        -0.537892        -1.883828        -1.544020
 H        -1.833774        -3.013816         0.573236
