19
Iteration:  2365charge 0 multiplicity 1
 C         1.522786         0.672126        -0.088713
 C         0.092964         0.202603         0.096292
 C        -1.163990         0.870833        -0.146721
 C        -2.198411        -0.210112         0.019369
 C        -1.700321        -0.815303         1.389975
 C        -0.448440        -1.200307         0.428321
 O         0.494617        -2.190755         0.712246
 C        -1.354657        -1.372130        -0.794230
 O        -1.968487        -2.709483        -0.950932
 H         1.834900         1.456883         0.570819
 H         2.287025        -0.108993         0.249109
 H         1.919420         0.907494        -1.067939
 H        -1.211329         1.827077        -0.644231
 H        -3.212937        -0.002019        -0.259712
 H        -1.395625         0.018947         2.058717
 H        -2.368323        -1.637907         1.797737
 H         0.642759        -2.735563        -0.011537
 H        -1.089151        -0.848864        -1.725277
 H        -1.787966        -3.115761        -1.872391
