19
Iteration:   634
 C         1.484664         0.665356        -0.104073
 C         0.077383         0.212424        -0.005673
 C        -1.083628         0.814451        -0.242895
 C        -2.086918        -0.315701        -0.035132
 C        -1.611194        -0.997453         1.282135
 C        -0.415362        -1.209347         0.407500
 O         0.533666        -2.078164         0.927206
 C        -1.361864        -1.421353        -0.860279
 O        -2.205887        -2.498674        -0.960168
 H         1.749636         1.519558         0.492691
 H         2.278906        -0.069295         0.241901
 H         1.773513         0.995372        -1.125344
 H        -1.339482         1.778103        -0.568138
 H        -3.126517        -0.268278        -0.329719
 H        -1.487853        -0.383409         2.212346
 H        -2.235146        -1.943128         1.536378
 H         0.862332        -1.724504         1.806786
 H        -0.987435        -1.110432        -1.827221
 H        -1.737232        -3.407644        -1.096205
