19
Iteration:  4892charge 0 multiplicity 1
 C         1.661296         0.337402        -0.184780
 C         0.160060         0.038225        -0.293651
 C        -0.627871         0.170484        -1.349035
 C        -1.825468        -0.723623        -1.021244
 C        -2.113225        -0.110422         0.423032
 C        -0.601764        -0.773516         0.705817
 O        -0.045348        -1.035522         1.906851
 C        -1.086365        -1.941192        -0.338312
 O        -1.958419        -2.931878         0.151825
 H         1.976179         0.923580        -1.081815
 H         1.770711         0.860469         0.802419
 H         2.287621        -0.593299        -0.075141
 H        -0.523054         0.760535        -2.300195
 H        -2.529667        -0.884215        -1.822117
 H        -2.181743         0.921907         0.472537
 H        -2.864677        -0.741812         0.881874
 H        -0.667440        -1.528181         2.549048
 H        -0.230878        -2.342842        -1.000551
 H        -2.739263        -2.714418        -0.496626
