19
Iteration:  1061charge 0 multiplicity 1
 C         1.525545         0.737543         0.061752
 C         0.183025         0.182863        -0.032589
 C        -0.991489         0.830428        -0.381608
 C        -2.114489        -0.144661        -0.263103
 C        -1.760298        -0.802776         1.046164
 C        -0.429359        -1.159342         0.387897
 O         0.473931        -2.104816         0.941581
 C        -1.402288        -1.570436        -0.836438
 O        -2.120495        -2.762259        -0.653429
 H         2.152503        -0.078075         0.340379
 H         1.762550         0.945955        -0.987828
 H         1.523063         1.670236         0.596334
 H        -1.213689         1.747849        -0.930434
 H        -3.121069         0.082925        -0.649887
 H        -1.760596        -0.178156         1.937367
 H        -2.341011        -1.635809         1.280296
 H         0.862045        -1.688773         1.753299
 H        -0.911468        -1.597593        -1.827204
 H        -1.699038        -3.150797         0.209516
