19
Iteration:   215
 C         1.570825         0.611021        -0.056792
 C         0.004156         0.315855         0.110980
 C        -1.115599         0.893056        -0.162965
 C        -2.228558        -0.151226         0.158659
 C        -1.603710        -0.926120         1.355275
 C        -0.478065        -1.124015         0.384146
 O         0.445706        -2.221157         0.632584
 C        -1.436612        -1.314446        -0.759628
 O        -1.823156        -2.734512        -0.967645
 H         1.619040         1.503695        -0.729755
 H         1.967660         0.707254         0.976522
 H         1.869525        -0.395762        -0.523473
 H        -1.403449         1.717200        -0.703954
 H        -3.287801         0.024622        -0.012957
 H        -1.438106        -0.469058         2.357782
 H        -2.051872        -1.972198         1.445763
 H         0.599446        -2.751336        -0.121371
 H        -1.116546        -0.888136        -1.751329
 H        -2.222858        -2.698970        -1.806192
