19
Iteration:  2187charge 0 multiplicity 1
 C         1.497267         0.627811         0.140331
 C         0.053531         0.186203         0.024404
 C        -1.068983         0.810202        -0.276942
 C        -2.102300        -0.256797        -0.174166
 C        -1.778911        -0.858380         1.188834
 C        -0.415958        -1.135504         0.353723
 O         0.544248        -2.091629         0.592227
 C        -1.385090        -1.413386        -0.808054
 O        -1.965142        -2.621615        -0.572564
 H         2.192351         0.149143        -0.549276
 H         1.596477         1.733127        -0.002906
 H         1.904027         0.354459         1.156806
 H        -1.251744         1.850912        -0.671932
 H        -3.148480         0.034628        -0.453925
 H        -1.517998        -0.167051         2.000440
 H        -2.354942        -1.697119         1.541811
 H         0.216485        -2.947523         0.755245
 H        -1.093187        -1.342600        -1.871010
 H        -2.356451        -2.939917        -1.475134
