19
Iteration:   342charge 0 multiplicity 1
 C         1.510249         0.709154         0.091976
 C         0.099910         0.252293         0.166646
 C        -1.118241         0.898479        -0.242446
 C        -2.169461        -0.231749        -0.028157
 C        -1.620917        -0.882084         1.294514
 C        -0.412153        -1.214998         0.360086
 O         0.450464        -2.300307         0.449177
 C        -1.503453        -1.329623        -0.777966
 O        -2.028402        -2.670571        -0.851223
 H         2.021155         1.056148         1.093128
 H         2.290003         0.041274        -0.247914
 H         1.690133         1.567769        -0.532632
 H        -1.192274         1.936022        -0.484652
 H        -3.233160         0.018257        -0.225434
 H        -1.349113        -0.295065         2.117983
 H        -2.186393        -1.783289         1.520485
 H         1.260884        -1.985304         0.966621
 H        -1.089390        -1.088368        -1.766117
 H        -1.370193        -3.225489        -0.280747
