19
Iteration:  2818charge 0 multiplicity 1
 C         1.516601         0.705797         0.001321
 C         0.113559         0.187444         0.095525
 C        -1.064576         0.813115        -0.306475
 C        -2.138696        -0.194568         0.001037
 C        -1.652721        -0.903250         1.328931
 C        -0.490260        -1.199044         0.386534
 O         0.362143        -2.204328         0.820378
 C        -1.505065        -1.328236        -0.827291
 O        -1.853234        -2.702067        -1.061466
 H         2.062320         0.248000        -0.866986
 H         1.314375         1.839654        -0.132638
 H         2.128875         0.571678         0.999302
 H        -1.031823         1.825277        -0.440525
 H        -3.161210         0.159137        -0.183599
 H        -1.530636        -0.233559         2.237869
 H        -2.212217        -1.791675         1.570392
 H         1.269368        -1.835506         0.754660
 H        -1.192479        -0.877253        -1.853368
 H        -2.098952        -3.254871        -0.273995
