19
Iteration:   650
 C         1.479231         0.590149        -0.125949
 C         0.046976         0.197702         0.025801
 C        -1.199120         0.879629        -0.288752
 C        -2.182651        -0.211499         0.014940
 C        -1.628261        -0.875355         1.332080
 C        -0.411377        -1.243292         0.443626
 O         0.558269        -2.216741         0.911318
 C        -1.357138        -1.345194        -0.851543
 O        -2.058199        -2.579050        -1.017092
 H         1.672120         1.372146         0.678637
 H         2.005379        -0.317937         0.040559
 H         1.613838         0.912847        -1.155105
 H        -1.282966         1.815747        -0.924079
 H        -3.251722         0.051306        -0.018327
 H        -1.368578        -0.201136         2.156898
 H        -2.161551        -1.729910         1.700199
 H         1.008566        -1.702090         1.582669
 H        -0.860209        -1.002129        -1.813677
 H        -1.315381        -3.241698        -1.042852
