19
Iteration:  1219
 C         1.556929         0.681405         0.098735
 C         0.104856         0.203701        -0.163054
 C        -0.974391         0.805154        -0.701602
 C        -2.106278        -0.243875        -0.227319
 C        -1.702160        -0.633797         1.202122
 C        -0.485882        -1.143429         0.469280
 O         0.464398        -2.003929         1.047259
 C        -1.460589        -1.566741        -0.698212
 O        -2.003706        -2.891478        -0.737352
 H         2.156625         0.875148        -0.817536
 H         1.338786         1.661643         0.691487
 H         2.132295        -0.105268         0.623619
 H        -1.162069         1.823685        -1.088835
 H        -3.088210         0.175500        -0.471501
 H        -1.720690         0.172969         1.936397
 H        -2.264032        -1.454700         1.818095
 H         0.903467        -2.769856         0.507309
 H        -0.997194        -1.284223        -1.648711
 H        -2.816823        -2.870560        -0.148472
