19
Iteration:  2520charge 0 multiplicity 1
 C         1.533769         0.803682         0.015604
 C         0.112344         0.193196         0.084576
 C        -1.023641         0.871128         0.005036
 C        -2.158064        -0.180700        -0.075077
 C        -1.706001        -1.063468         1.137722
 C        -0.408682        -1.195948         0.319027
 O         0.470942        -2.254514         0.736043
 C        -1.470453        -1.377925        -0.910464
 O        -1.982528        -2.637082        -0.766798
 H         1.618142         1.497138        -0.919052
 H         1.643013         1.494307         0.892908
 H         2.402581         0.134038         0.065542
 H        -1.154703         1.900470        -0.245535
 H        -3.206715         0.192782        -0.201815
 H        -1.694453        -0.480259         2.092439
 H        -2.327409        -2.007882         1.287938
 H         1.334595        -2.251775         0.251631
 H        -1.379381        -1.001229        -1.980823
 H        -2.559440        -2.688723        -1.541576
