19
Iteration:   116
 C         1.471385         0.680422         0.047277
 C         0.075824         0.120898         0.072816
 C        -1.089962         0.834343        -0.116015
 C        -2.113877        -0.255656         0.051165
 C        -1.598533        -1.062649         1.308301
 C        -0.352197        -1.265124         0.337361
 O         0.752058        -2.006496         0.743578
 C        -1.448168        -1.323493        -0.922550
 O        -2.303384        -2.501485        -0.981085
 H         1.891927         0.358500        -0.963472
 H         1.365917         1.772985         0.212778
 H         1.884380         0.072129         0.867758
 H        -1.231297         1.918524        -0.212366
 H        -3.174565        -0.044571        -0.175443
 H        -1.527699        -0.505157         2.253945
 H        -2.157039        -2.028097         1.490865
 H         0.715618        -2.934995         0.688375
 H        -1.167776        -0.934373        -1.939307
 H        -2.069345        -3.147612        -1.645868
