19
Iteration:    72charge 0 multiplicity 1
 C         1.467610         0.764299         0.316565
 C         0.102205         0.225045        -0.050886
 C        -1.084455         0.787462        -0.224776
 C        -2.082281        -0.316928         0.076465
 C        -1.558169        -0.936339         1.398827
 C        -0.360088        -1.189739         0.309431
 O         0.636220        -2.174057         0.407535
 C        -1.493581        -1.351762        -0.802784
 O        -2.250777        -2.558689        -0.949941
 H         2.172321        -0.169845         0.258615
 H         1.890722         1.523780        -0.404991
 H         1.426117         1.086192         1.422106
 H        -1.374238         1.842193        -0.482134
 H        -3.146997        -0.038302        -0.047274
 H        -1.253811        -0.395504         2.311575
 H        -2.219377        -1.819346         1.667452
 H         0.390866        -2.786186         1.068924
 H        -1.236409        -1.054107        -1.849026
 H        -1.672721        -3.112076        -1.441507
