19
Iteration:  4653
 C         1.645793         0.492701        -0.122920
 C         0.269292         0.030209        -0.269430
 C        -0.641108         0.252604        -1.293926
 C        -1.860968        -0.602933        -0.937467
 C        -2.110831        -0.226472         0.567537
 C        -0.592880        -0.851125         0.636926
 O        -0.012372        -1.182470         1.895440
 C        -1.173645        -1.929977        -0.460729
 O        -2.111467        -2.867542         0.034613
 H         1.872062         1.236246        -0.877878
 H         1.939188         0.946517         0.860549
 H         2.314666        -0.366285        -0.332209
 H        -0.463418         0.532827        -2.307893
 H        -2.671829        -0.645339        -1.624557
 H        -2.259873         0.867571         0.687961
 H        -2.838321        -1.009691         0.967149
 H         0.971879        -1.505461         1.823817
 H        -0.563730        -2.278243        -1.294428
 H        -1.727379        -3.802805        -0.054407
