19
Iteration:  2510charge 0 multiplicity 1
 C         1.468457         0.777017         0.109392
 C         0.097637         0.187523         0.066226
 C        -1.063682         0.930409         0.006686
 C        -2.118376        -0.111547        -0.011724
 C        -1.706478        -0.957225         1.187412
 C        -0.461403        -1.306448         0.222473
 O         0.471387        -2.237951         0.663831
 C        -1.402700        -1.367742        -0.927012
 O        -1.974612        -2.702092        -0.762574
 H         1.693228         1.337260        -0.882609
 H         1.796444         1.462918         0.880590
 H         2.298387         0.057820        -0.008772
 H        -1.176599         1.909126        -0.340119
 H        -3.143444         0.234302        -0.259831
 H        -1.564877        -0.409650         2.196019
 H        -2.274050        -1.959925         1.287198
 H         1.313059        -2.007885         0.303120
 H        -0.991471        -1.296974        -1.967197
 H        -2.622902        -2.984836        -1.345406
