19
Iteration:   863
 C         1.576396         0.611317        -0.107095
 C         0.026203         0.270213        -0.020355
 C        -1.093854         0.854995        -0.424637
 C        -2.226153        -0.185579        -0.095369
 C        -1.766493        -0.723855         1.287418
 C        -0.477544        -1.154809         0.490037
 O         0.374852        -2.232881         0.779703
 C        -1.338854        -1.373793        -0.788921
 O        -1.675796        -2.734244        -0.654450
 H         1.871282         0.510156        -1.156964
 H         1.834884         1.488550         0.573841
 H         2.118952        -0.275875         0.325165
 H        -1.307695         1.867014        -0.837097
 H        -3.254977        -0.105009        -0.424055
 H        -1.770722         0.025295         2.006959
 H        -2.495538        -1.486612         1.626482
 H        -0.183536        -3.033155         0.868188
 H        -0.882040        -1.133326        -1.771048
 H        -2.458213        -2.830729        -1.181776
