19
Iteration:  3374
 C         1.520711         0.654820        -0.125781
 C         0.088562         0.177772         0.004149
 C        -1.024451         0.700045        -0.586392
 C        -2.171369        -0.210894        -0.341167
 C        -1.821828        -0.547286         1.143314
 C        -0.495130        -1.116570         0.539031
 O         0.463064        -2.016202         1.205170
 C        -1.332518        -1.533101        -0.751288
 O        -1.889624        -2.864883        -0.795020
 H         1.739408         1.640663        -0.636307
 H         2.021858         0.873638         0.871030
 H         2.263451        -0.081472        -0.600971
 H        -0.996833         1.672510        -1.154709
 H        -3.195763         0.009887        -0.526576
 H        -1.578016         0.254230         1.786571
 H        -2.404120        -1.395166         1.637266
 H         0.022921        -2.902564         1.321677
 H        -0.777181        -1.400421        -1.773507
 H        -2.395299        -2.940880         0.054964
