19
Iteration:   808
 C         1.482046         0.693683         0.083063
 C         0.118982         0.228963        -0.063875
 C        -1.080050         0.824213        -0.375730
 C        -2.125773        -0.274155        -0.198627
 C        -1.639496        -0.850085         1.246975
 C        -0.355735        -1.172935         0.377046
 O         0.661761        -2.040963         0.823552
 C        -1.410762        -1.485534        -0.824534
 O        -2.203261        -2.688324        -0.639918
 H         2.142866        -0.102481        -0.265325
 H         1.855739         1.584564        -0.534779
 H         1.913894         0.904909         1.092649
 H        -1.355917         1.866936        -0.440257
 H        -3.141346        -0.077470        -0.477132
 H        -1.721483        -0.136034         1.997198
 H        -2.255884        -1.738772         1.411053
 H         0.222408        -2.879331         0.791477
 H        -1.144836        -1.477358        -1.890124
 H        -2.674447        -2.709909        -1.428774
