19
Iteration:  4015charge 0 multiplicity 1
 C         1.508298         0.579017         0.043052
 C         0.166179         0.140180        -0.250355
 C        -0.802599         0.524932        -1.132790
 C        -1.936340        -0.391130        -0.725180
 C        -1.852529        -0.306164         0.863235
 C        -0.588883        -0.954351         0.509178
 O         0.197995        -1.637132         1.529177
 C        -1.172936        -1.861360        -0.613133
 O        -2.135400        -2.882752        -0.134698
 H         1.484238         1.380504         0.802412
 H         2.118380        -0.243958         0.457209
 H         2.059538         0.944270        -0.772469
 H        -0.719028         1.156339        -1.964930
 H        -2.870875        -0.299503        -1.362670
 H        -1.797575         0.678361         1.368589
 H        -2.644082        -0.974098         1.330109
 H         0.765230        -2.161547         1.007685
 H        -0.661764        -2.109341        -1.496579
 H        -1.564601        -3.683122         0.140082
