19
Iteration:   657
 C         1.444744         0.543298        -0.146914
 C        -0.033685         0.257984         0.040053
 C        -1.128233         0.826998        -0.258525
 C        -2.185780        -0.175415        -0.000558
 C        -1.639983        -0.826398         1.302374
 C        -0.393032        -1.161923         0.464885
 O         0.543983        -2.238556         0.862745
 C        -1.401190        -1.381220        -0.763149
 O        -1.993736        -2.617821        -1.042796
 H         1.841301         1.244688         0.622428
 H         2.181466        -0.308111         0.064649
 H         1.688901         1.053582        -1.107249
 H        -1.201594         1.790850        -0.802531
 H        -3.237728         0.021927        -0.091923
 H        -1.536845        -0.116648         2.171086
 H        -2.236653        -1.743242         1.784964
 H         1.125461        -1.890246         1.513798
 H        -1.079250        -1.023039        -1.739080
 H        -1.271347        -3.197471        -1.080369
