19
Iteration:  3183charge 0 multiplicity 1
 C         1.448995         0.525766         0.015351
 C         0.035425         0.284725         0.014657
 C        -1.011204         0.858119        -0.533206
 C        -2.110171        -0.196461        -0.282691
 C        -1.765511        -0.831048         1.201557
 C        -0.484848        -1.117511         0.516545
 O         0.558257        -1.969235         0.952927
 C        -1.334002        -1.497258        -0.763102
 O        -1.986884        -2.754553        -0.645637
 H         1.620939         1.471437         0.535435
 H         2.034266        -0.307724         0.408021
 H         1.855068         0.764874        -0.971023
 H        -1.002924         1.757021        -1.260292
 H        -3.144337        -0.185361        -0.681892
 H        -1.750517        -0.127461         2.070986
 H        -2.208456        -1.831771         1.387294
 H         0.125565        -2.838980         0.937024
 H        -0.688085        -1.251818        -1.655657
 H        -2.283536        -3.043414        -1.580587
