19
Iteration:   911
 C         1.538122         0.627975        -0.161921
 C         0.086265         0.143428         0.006311
 C        -1.052322         0.810054        -0.381719
 C        -2.163979        -0.219359        -0.157283
 C        -1.796542        -0.802557         1.240748
 C        -0.490325        -1.200751         0.497194
 O         0.627721        -1.980525         1.113353
 C        -1.392927        -1.476434        -0.820214
 O        -2.061490        -2.685169        -0.859693
 H         1.499273         1.555153        -0.689600
 H         1.994247         0.703414         0.925261
 H         2.184150         0.069708        -0.828528
 H        -1.155971         1.799467        -0.795434
 H        -3.173114         0.166207        -0.466674
 H        -1.599773        -0.074166         2.140767
 H        -2.421401        -1.632388         1.600724
 H         0.433356        -2.936486         0.879664
 H        -0.863237        -1.217268        -1.743909
 H        -1.657449        -3.233382        -1.625186
