19
Iteration:  2020
 C         1.581061         0.713644         0.111298
 C         0.075349         0.211033         0.002267
 C        -1.022627         0.736385        -0.515720
 C        -2.162055        -0.282376        -0.132659
 C        -1.741430        -0.768456         1.339905
 C        -0.413579        -1.157404         0.436174
 O         0.584777        -2.085145         0.694145
 C        -1.485905        -1.412587        -0.797026
 O        -2.123393        -2.726461        -0.781236
 H         1.799952         1.311709         1.064549
 H         2.265403        -0.087781         0.173692
 H         1.985821         1.267143        -0.742807
 H        -1.109529         1.850432        -0.759745
 H        -3.200352         0.041142        -0.207691
 H        -1.699370        -0.003847         2.070407
 H        -2.289298        -1.586760         1.779037
 H         0.179876        -2.745774         1.212696
 H        -0.917213        -1.260781        -1.720519
 H        -1.332604        -3.150446        -0.698586
