19
Iteration:  3857charge 0 multiplicity 1
 C         1.571934         0.378760        -0.132213
 C         0.120878         0.204574        -0.169295
 C        -0.844564         0.654265        -0.988567
 C        -2.031962        -0.371558        -0.646407
 C        -1.994426        -0.472919         0.935843
 C        -0.514615        -0.985728         0.536666
 O         0.164904        -1.681221         1.544166
 C        -1.192355        -1.688938        -0.629148
 O        -1.915219        -2.874414        -0.374224
 H         1.943235        -0.396637         0.518039
 H         1.932675         0.309500        -1.131685
 H         1.887774         1.345855         0.326243
 H        -1.141212         1.655626        -1.365684
 H        -2.952776        -0.366507        -1.194433
 H        -1.916107         0.448331         1.664043
 H        -2.751367        -1.128245         1.281296
 H         1.205343        -1.524554         1.442793
 H        -0.676172        -1.838634        -1.561460
 H        -1.873385        -3.098412         0.557831
