19
Iteration:  1970
 C         1.490208         0.768637         0.179881
 C         0.101192         0.222745        -0.058817
 C        -1.124401         0.774535        -0.493634
 C        -2.059316        -0.309014        -0.264040
 C        -1.602959        -0.867352         1.178839
 C        -0.378546        -1.197320         0.371009
 O         0.614021        -2.101557         0.875998
 C        -1.388415        -1.515895        -0.866627
 O        -2.232565        -2.578803        -0.601595
 H         1.962592         0.355732         1.051824
 H         2.232034         0.627089        -0.691081
 H         1.652901         1.883384         0.283097
 H        -1.216196         1.865392        -0.672888
 H        -3.125138        -0.031713        -0.476928
 H        -1.322109        -0.140805         2.034247
 H        -2.173475        -1.809677         1.508091
 H        -0.019154        -2.735893         1.348622
 H        -1.240966        -1.154910        -1.912995
 H        -2.265093        -3.353786        -1.300908
