19
Iteration:  1065
 C         1.548231         0.720623         0.047748
 C         0.129105         0.194730        -0.013291
 C        -0.971031         0.792804        -0.379827
 C        -2.129679        -0.140864        -0.273203
 C        -1.742502        -0.781160         1.043967
 C        -0.411952        -1.176017         0.393824
 O         0.490269        -2.071209         0.965423
 C        -1.424138        -1.589448        -0.822171
 O        -2.130543        -2.757590        -0.686319
 H         2.189026        -0.092041         0.412330
 H         1.719367         1.048796        -1.077255
 H         1.658011         1.617964         0.669655
 H        -1.288027         1.636799        -0.979238
 H        -3.139822         0.055487        -0.593187
 H        -1.673532        -0.129932         1.970736
 H        -2.296867        -1.751867         1.270337
 H         0.815030        -1.682120         1.771156
 H        -0.954567        -1.450434        -1.819353
 H        -1.724884        -3.111472         0.061879
