19
Iteration:  2637charge 0 multiplicity 1
 C         1.480230         0.657860         0.022419
 C         0.030340         0.275873         0.199906
 C        -1.144098         0.884127        -0.067880
 C        -2.153443        -0.217195        -0.147744
 C        -1.752836        -1.029225         1.199577
 C        -0.393516        -1.272021         0.351911
 O         0.571657        -2.230987         0.521585
 C        -1.333899        -1.273784        -0.860369
 O        -1.974766        -2.533078        -0.713155
 H         1.746502         1.718115         0.013438
 H         2.260109         0.273236         0.700356
 H         1.849022         0.256861        -0.896267
 H        -1.267033         1.898867        -0.245094
 H        -3.272547        -0.189899        -0.248976
 H        -1.724920        -0.468626         2.075477
 H        -2.231116        -1.997843         1.435310
 H         0.537071        -2.496501         1.538010
 H        -1.051847        -0.998536        -1.880767
 H        -2.145288        -2.941242        -1.683723
