19
Iteration:  4393
 C         1.655122         0.429993        -0.121018
 C         0.130176         0.152510        -0.261192
 C        -0.799396         0.366566        -1.220102
 C        -1.987277        -0.477718        -0.756045
 C        -1.936205        -0.180159         0.735382
 C        -0.566587        -0.904661         0.592294
 O        -0.068739        -1.415519         1.744427
 C        -1.174519        -1.823043        -0.521700
 O        -1.814328        -2.990783        -0.136868
 H         2.205262        -0.263282        -0.761499
 H         1.990133         1.472977        -0.353025
 H         1.921456         0.237048         0.950333
 H        -0.717718         1.024421        -2.148918
 H        -2.903016        -0.550909        -1.354649
 H        -2.030515         0.885426         0.984791
 H        -2.580819        -0.845697         1.375822
 H         0.751787        -2.027629         1.649285
 H        -0.519249        -2.072119        -1.396569
 H        -2.811858        -2.977727         0.117550
