19
Iteration:  3489
 C         1.545049         0.723048         0.042799
 C         0.113553         0.111489        -0.045087
 C        -0.934715         0.704778        -0.720947
 C        -2.118383        -0.247447        -0.424344
 C        -1.836955        -0.564972         1.033061
 C        -0.494228        -1.111482         0.517251
 O         0.299999        -2.030102         1.158541
 C        -1.294726        -1.622059        -0.800231
 O        -1.898110        -2.830771        -0.468763
 H         2.308287        -0.094701         0.090628
 H         1.741885         1.423929        -0.820724
 H         1.427353         1.244202         0.970461
 H        -0.935024         1.568269        -1.472844
 H        -3.141806        -0.054649        -0.804550
 H        -1.650272         0.412606         1.579495
 H        -2.316520        -1.313804         1.592216
 H         0.846360        -1.468471         1.700672
 H        -0.900516        -1.613636        -1.828496
 H        -2.525537        -3.127985        -1.137150
