19
Iteration:   700charge 0 multiplicity 1
 C         1.518043         0.598359        -0.165543
 C         0.041578         0.273203         0.134067
 C        -1.054438         0.894229        -0.183504
 C        -2.202823        -0.183464        -0.079345
 C        -1.787491        -0.869880         1.217860
 C        -0.414917        -1.160247         0.443106
 O         0.419064        -2.245130         0.623342
 C        -1.374008        -1.355034        -0.803498
 O        -1.865858        -2.649570        -0.713081
 H         2.003273         0.521923         0.755991
 H         1.857921        -0.276170        -0.794033
 H         1.485009         1.537002        -0.709320
 H        -1.311164         1.838210        -0.716374
 H        -3.196184         0.075615        -0.425113
 H        -1.713347        -0.360379         2.189047
 H        -2.420520        -1.809985         1.470026
 H         0.867378        -2.131457         1.466459
 H        -0.969924        -1.090136        -1.781027
 H        -1.127627        -3.220559        -0.659494
