19
Iteration:  3713charge 0 multiplicity 1
 C         1.522728         0.529551         0.089004
 C         0.122572         0.168059        -0.120567
 C        -0.912006         0.535848        -1.009618
 C        -2.053625        -0.355313        -0.550123
 C        -1.855671        -0.396673         0.988218
 C        -0.543438        -1.049398         0.515247
 O         0.398795        -1.764768         1.282345
 C        -1.344462        -1.641778        -0.718732
 O        -1.901672        -2.888295        -0.376191
 H         2.164698         0.238288        -0.748065
 H         1.602950         1.587624         0.177083
 H         1.949326         0.100603         1.063486
 H        -1.057956         1.553516        -1.348055
 H        -3.109418        -0.149270        -0.955249
 H        -1.766150         0.546890         1.608326
 H        -2.469162        -1.109844         1.573211
 H         0.094325        -1.977751         2.233358
 H        -0.689844        -1.731061        -1.557966
 H        -2.857924        -2.962219        -0.736497
