19
Iteration:  1910charge 0 multiplicity 1
 C         1.540516         0.562217        -0.018347
 C         0.063931         0.202860         0.022835
 C        -1.113073         0.863649        -0.439639
 C        -2.185541        -0.230722        -0.176628
 C        -1.752751        -0.655514         1.221066
 C        -0.453549        -1.121124         0.461693
 O         0.476605        -2.090083         0.892087
 C        -1.380079        -1.497413        -0.827397
 O        -1.850928        -2.734564        -0.672103
 H         2.034904        -0.442674        -0.205535
 H         1.855107         1.243162        -0.766220
 H         1.758220         0.857350         1.013004
 H        -1.109854         1.821536        -0.943712
 H        -3.204188         0.069935        -0.389528
 H        -1.656671         0.118628         1.963580
 H        -2.203146        -1.491087         1.737094
 H         0.162275        -3.032681         0.681844
 H        -1.061200        -1.172982        -1.812689
 H        -2.173656        -3.126692        -1.590090
