19
Iteration:  3403charge 0 multiplicity 1
 C         1.514014         0.600415        -0.084149
 C         0.094626         0.220570        -0.116597
 C        -1.045267         0.780016        -0.581770
 C        -2.074600        -0.236186        -0.350061
 C        -1.798838        -0.694020         1.108346
 C        -0.447319        -1.066095         0.489738
 O         0.410050        -1.951035         1.212506
 C        -1.224193        -1.536256        -0.741607
 O        -2.044099        -2.825794        -0.720791
 H         1.667904         1.560597         0.399470
 H         2.164648         0.002898         0.528879
 H         2.104458         0.667291        -0.958622
 H        -1.107714         1.571787        -1.410152
 H        -3.079408        -0.137167        -0.800833
 H        -1.823116        -0.021281         2.035260
 H        -2.232402        -1.636328         1.398075
 H        -0.168101        -2.470470         1.917920
 H        -0.781851        -1.479194        -1.693891
 H        -1.782447        -3.311210         0.150939
