19
Iteration:  2343
 C         1.493373         0.519160        -0.050765
 C         0.088718         0.293951         0.050937
 C        -1.152857         0.919573        -0.202524
 C        -2.170441        -0.268448         0.007989
 C        -1.587203        -0.871983         1.333088
 C        -0.432472        -1.115171         0.451171
 O         0.469530        -2.093772         0.811178
 C        -1.487845        -1.413249        -0.819686
 O        -1.889913        -2.695314        -0.976900
 H         1.995847         1.209394         0.591990
 H         2.159562        -0.398025        -0.005528
 H         1.679093         0.942046        -1.040184
 H        -1.466952         1.910291        -0.381753
 H        -3.175684         0.054807         0.084787
 H        -1.387013        -0.294288         2.264060
 H        -2.121157        -1.875331         1.503493
 H         0.254366        -2.909865         0.192457
 H        -1.178911        -0.884864        -1.736428
 H        -2.005379        -2.757738        -1.938042
