19
Iteration:  1112
 C         1.540561         0.496156        -0.133925
 C         0.013575         0.220583        -0.058478
 C        -1.097319         0.745979        -0.509745
 C        -2.200530        -0.271203        -0.174932
 C        -1.685971        -0.666227         1.228358
 C        -0.443559        -1.110129         0.555993
 O         0.558548        -2.014677         1.066955
 C        -1.291028        -1.506702        -0.687451
 O        -2.041077        -2.636042        -0.913784
 H         1.970972        -0.429580        -0.685172
 H         1.620102         1.419923        -0.602785
 H         1.658200         0.616151         1.010614
 H        -1.189055         1.567568        -1.159788
 H        -3.247303        -0.255123        -0.518001
 H        -1.665129         0.140302         1.983367
 H        -2.505520        -1.473534         1.532300
 H         0.243594        -2.074604         2.051272
 H        -0.617818        -1.400646        -1.571136
 H        -1.534193        -3.458931        -1.009218
