19
Iteration:  1343charge 0 multiplicity 1
 C         1.575727         0.565434        -0.024364
 C         0.116636         0.213908        -0.172663
 C        -1.056605         0.809686        -0.590873
 C        -2.196453        -0.229009        -0.269873
 C        -1.734292        -0.676445         1.205889
 C        -0.483723        -1.101693         0.395852
 O         0.345116        -1.950015         1.204114
 C        -1.297854        -1.486693        -0.780277
 O        -1.834879        -2.868784        -0.697290
 H         1.828152         1.703575        -0.060711
 H         1.969204         0.147132         0.867010
 H         2.041723         0.034604        -0.925221
 H        -1.265786         1.585851        -1.251288
 H        -3.153716        -0.158089        -0.778034
 H        -1.731744         0.164266         1.978549
 H        -2.293755        -1.442781         1.786704
 H        -0.083913        -2.829028         1.498170
 H        -0.757024        -1.302445        -1.703040
 H        -2.749596        -2.808638        -0.559081
