19
Iteration:  3816
 C         1.621395         0.652234        -0.114109
 C         0.197580         0.111478        -0.189510
 C        -0.858730         0.495999        -0.942866
 C        -2.063526        -0.330259        -0.562399
 C        -1.947355        -0.297302         1.012277
 C        -0.524336        -1.029913         0.576209
 O         0.117166        -1.778516         1.506609
 C        -1.320898        -1.702863        -0.660098
 O        -1.910559        -2.963005        -0.477113
 H         1.871748         1.136357         0.859947
 H         2.388617        -0.152090        -0.225925
 H         1.898117         1.375914        -0.843298
 H        -0.664203         1.389312        -1.599491
 H        -2.944917        -0.178093        -1.112974
 H        -1.869326         0.730859         1.416622
 H        -2.637250        -0.978643         1.558972
 H         0.933700        -2.136055         1.277261
 H        -0.708123        -1.733172        -1.534377
 H        -1.798341        -3.253256         0.435945
