19
Iteration:  2512
 C         1.477619         0.787643         0.094145
 C         0.089834         0.186977         0.064091
 C        -1.047599         0.917813         0.017335
 C        -2.129976        -0.119450        -0.024126
 C        -1.704675        -0.979839         1.174387
 C        -0.463793        -1.291554         0.232203
 O         0.468687        -2.241601         0.681534
 C        -1.409465        -1.370057        -0.925131
 O        -1.969198        -2.685552        -0.756784
 H         1.713987         1.322128        -0.830247
 H         1.801665         1.461166         0.833961
 H         2.357467         0.128915        -0.025188
 H        -1.183854         1.869657        -0.336515
 H        -3.118402         0.239019        -0.251247
 H        -1.629846        -0.407385         2.193457
 H        -2.258576        -1.948209         1.279475
 H         1.413306        -2.054854         0.271669
 H        -1.108245        -1.258040        -1.952606
 H        -2.684810        -2.971095        -1.447853
