19
Iteration:  2094charge 0 multiplicity 1
 C         1.486010         0.604678        -0.169598
 C         0.110273         0.219094         0.078987
 C        -1.032914         0.892702        -0.308190
 C        -2.147531        -0.171766        -0.095903
 C        -1.747988        -0.932826         1.258316
 C        -0.437984        -1.157737         0.563499
 O         0.552469        -2.007888         0.966696
 C        -1.378958        -1.449986        -0.809854
 O        -2.028471        -2.728225        -0.891157
 H         1.599630         1.580917        -0.696512
 H         2.151860         0.677748         0.708837
 H         2.024966        -0.080568        -0.818717
 H        -1.028778         1.839498        -0.981541
 H        -3.174062        -0.044615        -0.419992
 H        -1.652773        -0.380804         2.217613
 H        -2.419704        -1.762121         1.538824
 H         0.241858        -2.960972         0.768351
 H        -1.002105        -1.064283        -1.784136
 H        -2.291521        -2.938152        -1.813263
