19
Iteration:  3235
 C         1.417828         0.717029         0.052947
 C         0.061198         0.184962        -0.044987
 C        -1.026407         0.816973        -0.562639
 C        -1.999648        -0.226097        -0.272650
 C        -1.649670        -0.750611         1.175905
 C        -0.420023        -1.183987         0.440546
 O         0.508578        -2.009821         1.051135
 C        -1.347538        -1.554455        -0.850757
 O        -2.155918        -2.725602        -0.665433
 H         1.995828         0.535191         0.943174
 H         2.013005         0.225293        -0.742147
 H         1.367139         1.810431        -0.157312
 H        -1.035854         1.938574        -0.871584
 H        -3.061806        -0.308133        -0.460839
 H        -1.510281        -0.086597         1.993422
 H        -2.264381        -1.632793         1.577379
 H        -0.170172        -2.746309         1.309596
 H        -0.852255        -1.463880        -1.756268
 H        -1.514622        -3.411992        -1.141154
