19
Iteration:    14
 C         1.629407         0.771940         0.151804
 C         0.133625         0.279191         0.165763
 C        -1.159452         0.903426         0.028617
 C        -2.215731        -0.264151        -0.074129
 C        -1.673336        -1.037680         1.242361
 C        -0.389759        -1.146338         0.310436
 O         0.488402        -2.255721         0.317937
 C        -1.372517        -1.323264        -0.885054
 O        -2.132264        -2.605277        -0.783624
 H         2.147704         0.233111         1.060880
 H         2.088746         0.457621        -0.805238
 H         1.680619         1.803764         0.217682
 H        -1.341877         1.858508         0.397807
 H        -3.267853        -0.078041        -0.297205
 H        -1.477499        -0.589353         2.206956
 H        -2.143525        -1.961423         1.309694
 H         0.687822        -2.565947         1.238473
 H        -0.929690        -1.146111        -1.868694
 H        -1.538011        -3.295714        -1.184873
