19
Iteration:  4960
 C         1.597402         0.558771        -0.041764
 C         0.291780        -0.062787        -0.386364
 C        -0.585067         0.081035        -1.495111
 C        -1.772131        -0.628933        -1.063999
 C        -2.035624        -0.077849         0.412688
 C        -0.641641        -0.873138         0.605888
 O        -0.148166        -1.167400         1.925043
 C        -1.112714        -1.981416        -0.350291
 O        -2.073865        -2.964414         0.218127
 H         1.387343         1.456175         0.542672
 H         2.211531        -0.145813         0.606182
 H         2.180387         0.952800        -0.897588
 H        -0.362252         0.736383        -2.313953
 H        -2.655224        -0.818696        -1.728166
 H        -1.806396         1.000146         0.476864
 H        -2.929120        -0.447864         0.806412
 H         0.213579        -0.343588         2.127421
 H        -0.438364        -2.431382        -1.103578
 H        -2.128506        -2.904999         1.179440
