19
Iteration:  1942
 C         1.514343         0.713195         0.068941
 C         0.107806         0.226158         0.023647
 C        -0.949357         0.849471        -0.408392
 C        -2.097833        -0.209966        -0.246014
 C        -1.819808        -0.788525         1.167945
 C        -0.463177        -1.158356         0.466854
 O         0.634198        -2.028931         0.772842
 C        -1.386832        -1.591484        -0.767141
 O        -2.165098        -2.753187        -0.613790
 H         2.279324         0.071544         0.547517
 H         1.960153         1.033936        -0.865362
 H         1.544524         1.578039         0.727512
 H        -0.979547         1.803168        -0.878112
 H        -3.092371         0.087433        -0.542893
 H        -1.805930        -0.111009         1.992094
 H        -2.264945        -1.745363         1.260336
 H         0.251503        -2.914435         0.824352
 H        -0.938147        -1.380624        -1.730663
 H        -2.280045        -3.258732        -1.421709
