19
Iteration:  4395charge 0 multiplicity 1
 C         1.654513         0.433420        -0.116547
 C         0.157932         0.159003        -0.271953
 C        -0.805174         0.366599        -1.207315
 C        -1.998064        -0.467202        -0.771233
 C        -1.947393        -0.205509         0.741248
 C        -0.561085        -0.893426         0.580820
 O        -0.067287        -1.410728         1.746584
 C        -1.175808        -1.814752        -0.524991
 O        -1.817468        -3.001927        -0.128653
 H         2.189958        -0.268813        -0.769726
 H         1.930116         1.469259        -0.275004
 H         1.909336         0.172615         0.906093
 H        -0.703599         0.938010        -2.169166
 H        -2.905489        -0.493287        -1.352754
 H        -2.021830         0.913084         1.023693
 H        -2.533872        -0.855380         1.354774
 H         0.773548        -2.018787         1.648019
 H        -0.535374        -2.147955        -1.317255
 H        -2.813513        -2.899887         0.059440
