19
Iteration:  3904charge 0 multiplicity 1
 C         1.561087         0.498770        -0.159440
 C         0.095028         0.158128        -0.156395
 C        -0.859212         0.510737        -1.104304
 C        -1.935491        -0.320005        -0.601434
 C        -1.895938        -0.388737         0.935636
 C        -0.549963        -0.983306         0.611778
 O         0.112052        -1.689830         1.641701
 C        -1.216100        -1.706790        -0.655988
 O        -1.937681        -2.901474        -0.389397
 H         2.027007        -0.173481        -0.921419
 H         1.650562         1.565908        -0.429912
 H         1.992409         0.265871         0.781765
 H        -0.966780         1.550591        -1.534888
 H        -2.892107        -0.127598        -1.096540
 H        -2.105695         0.540439         1.442962
 H        -2.650408        -1.219897         1.285105
 H         0.911201        -1.995343         1.125989
 H        -0.524671        -1.864912        -1.425176
 H        -1.595199        -3.168936         0.442950
