19
Iteration:   586charge 0 multiplicity 1
 C         1.441190         0.741298         0.089580
 C         0.119029         0.172062         0.150774
 C        -1.026098         0.812974        -0.350508
 C        -2.113548        -0.249691        -0.169591
 C        -1.681114        -0.910037         1.214975
 C        -0.382519        -1.232795         0.344103
 O         0.655546        -2.076721         0.741631
 C        -1.403914        -1.422214        -0.838903
 O        -2.216281        -2.630745        -0.709459
 H         1.501168         1.826546         0.280469
 H         2.164414         0.397019         0.791236
 H         1.919815         0.654205        -0.894849
 H        -1.132749         1.852977        -0.816471
 H        -3.152442         0.079062        -0.397988
 H        -1.578701        -0.208391         2.034079
 H        -2.262843        -1.709212         1.555054
 H         0.281247        -2.876089         1.070131
 H        -0.925048        -1.343345        -1.826191
 H        -2.237355        -3.157879        -1.472160
