19
Iteration:  1780
 C         1.503241         0.645475         0.170846
 C         0.134026         0.154414        -0.167240
 C        -1.026378         0.781913        -0.501866
 C        -2.121067        -0.209232        -0.256672
 C        -1.650729        -0.626107         1.230293
 C        -0.436391        -1.173961         0.338109
 O         0.538335        -1.976440         0.946384
 C        -1.475239        -1.574383        -0.748444
 O        -2.106590        -2.801387        -0.730065
 H         1.566294         1.716858        -0.247629
 H         1.603750         0.457582         1.180947
 H         2.251959         0.015637        -0.332896
 H        -1.100783         1.834742        -0.754580
 H        -3.138212         0.114185        -0.437411
 H        -1.552501         0.275471         1.858359
 H        -2.266897        -1.483181         1.611196
 H         0.194169        -2.516496         1.631510
 H        -1.085971        -1.384225        -1.774059
 H        -1.470299        -3.429809        -0.861795
