19
Iteration:  2746charge 0 multiplicity 1
 C         1.553941         0.690214         0.170059
 C         0.108356         0.264032         0.177842
 C        -1.035339         0.834425        -0.155179
 C        -2.138712        -0.233456        -0.080254
 C        -1.774589        -0.922143         1.136536
 C        -0.390578        -1.211778         0.361918
 O         0.667459        -2.075175         0.680202
 C        -1.450507        -1.438742        -0.902591
 O        -2.210222        -2.638393        -0.850240
 H         2.040842         0.348586         1.074363
 H         2.093817         0.376597        -0.731354
 H         1.379461         1.720049         0.242730
 H        -1.251692         1.769213        -0.644475
 H        -3.206361        -0.029392        -0.342937
 H        -1.730069        -0.443164         2.091077
 H        -2.335426        -1.944608         1.179669
 H         0.979179        -2.438198        -0.211174
 H        -1.009510        -1.226094        -1.839068
 H        -1.709298        -3.366726        -0.478100
