19
Iteration:  4995
 C         1.665363         0.559333        -0.012976
 C         0.203303         0.089297        -0.354447
 C        -0.495754        -0.048053        -1.462055
 C        -1.783144        -0.736362        -1.071174
 C        -2.140221        -0.167798         0.386591
 C        -0.700029        -0.793894         0.578090
 O        -0.148219        -1.256844         1.829749
 C        -1.065769        -1.898830        -0.332463
 O        -2.083218        -2.738348         0.316659
 H         1.735692         0.705149         1.053050
 H         2.449621        -0.163905        -0.327323
 H         1.897090         1.466404        -0.554509
 H        -0.262771         0.305302        -2.510988
 H        -2.523609        -1.088921        -1.837259
 H        -2.177066         0.956432         0.491291
 H        -2.992409        -0.541647         0.773627
 H         0.356380        -0.597198         2.237162
 H        -0.357606        -2.519474        -0.857843
 H        -1.608875        -3.494763         0.575108
