19
Iteration:  1486
 C         1.474745         0.741796         0.132442
 C         0.091674         0.309889        -0.049092
 C        -0.968350         0.704491        -0.715166
 C        -2.048418        -0.284724        -0.416209
 C        -1.843996        -0.655343         1.128854
 C        -0.420417        -1.164014         0.507773
 O         0.562880        -2.118004         0.940959
 C        -1.284511        -1.675922        -0.720179
 O        -2.188924        -2.645106        -0.534326
 H         1.801326         1.379706        -0.736373
 H         1.731055         1.269935         1.045469
 H         2.077892        -0.266011         0.215108
 H        -1.129152         1.645686        -1.276957
 H        -3.071522        -0.153703        -0.817329
 H        -1.588441         0.224695         1.829721
 H        -2.657087        -1.233642         1.519699
 H         0.668327        -1.963775         1.928210
 H        -0.891180        -1.751991        -1.781369
 H        -1.895409        -3.522254        -0.730756
