19
Iteration:  4321
 C         1.660304         0.504336        -0.082003
 C         0.183659         0.131740        -0.285024
 C        -0.825818         0.462414        -1.130501
 C        -1.990915        -0.509898        -0.833557
 C        -1.970418        -0.337689         0.725983
 C        -0.522896        -0.943106         0.552766
 O        -0.007372        -1.509783         1.757471
 C        -1.165774        -1.848124        -0.584353
 O        -1.973294        -2.850363        -0.149747
 H         2.023231         0.360620         0.988758
 H         2.284359        -0.218359        -0.646802
 H         1.793794         1.539051        -0.427359
 H        -0.773767         1.150775        -1.985521
 H        -2.923925        -0.539412        -1.373161
 H        -1.979993         0.728312         1.167008
 H        -2.677983        -0.935565         1.264260
 H         1.007754        -1.611914         1.676786
 H        -0.564157        -2.182497        -1.459327
 H        -1.892619        -2.904094         0.860484
