19
Iteration:  1066charge 0 multiplicity 1
 C         1.552619         0.715454         0.036442
 C         0.111779         0.198718        -0.006123
 C        -0.969240         0.783464        -0.384040
 C        -2.131455        -0.145707        -0.276208
 C        -1.738056        -0.773892         1.050215
 C        -0.407313        -1.180802         0.395167
 O         0.494021        -2.062883         0.970267
 C        -1.427293        -1.590340        -0.819705
 O        -2.133794        -2.756311        -0.697399
 H         2.232132        -0.108879         0.439902
 H         1.719594         1.068382        -1.055259
 H         1.702831         1.612945         0.706350
 H        -1.285782         1.627991        -0.991981
 H        -3.154273         0.056368        -0.572394
 H        -1.648193        -0.121744         1.968507
 H        -2.293558        -1.784976         1.275415
 H         0.815765        -1.663429         1.816728
 H        -0.974948        -1.407397        -1.819551
 H        -1.734453        -3.126442         0.033791
