19
Iteration:  1891
 C         1.553818         0.479751        -0.077148
 C         0.118760         0.314132        -0.115397
 C        -1.136674         0.836001        -0.463998
 C        -2.176690        -0.236723        -0.098320
 C        -1.733686        -0.783830         1.261315
 C        -0.463426        -1.026047         0.443897
 O         0.337392        -2.089491         0.973264
 C        -1.331837        -1.341436        -0.763248
 O        -1.760790        -2.792815        -0.705033
 H         2.155415        -0.242020        -0.780395
 H         1.877392         1.424609        -0.432542
 H         1.910760         0.332334         0.986230
 H        -1.457154         1.682705        -1.050506
 H        -3.170167        -0.079650        -0.509431
 H        -1.634873        -0.097064         2.119071
 H        -2.264392        -1.782500         1.479483
 H        -0.339837        -2.876031         0.952343
 H        -0.771395        -1.027757        -1.659031
 H        -2.445411        -2.979733        -1.510250
