19
Iteration:  2441
 C         1.395497         0.649722         0.186761
 C         0.057485         0.201420         0.013675
 C        -1.040417         0.901426        -0.211252
 C        -2.125479        -0.185312        -0.044202
 C        -1.572776        -0.911347         1.275440
 C        -0.415705        -1.148699         0.292202
 O         0.666804        -2.182481         0.594349
 C        -1.495622        -1.423855        -0.790688
 O        -2.132310        -2.682793        -0.853438
 H         1.534820         1.636934        -0.239568
 H         1.819817         0.690156         1.239626
 H         2.104919         0.071519        -0.402365
 H        -1.215412         2.003905        -0.331048
 H        -3.171426        -0.071594        -0.318809
 H        -1.296980        -0.506554         2.229077
 H        -2.222154        -1.790103         1.376550
 H         0.864031        -2.196181         1.632918
 H        -1.017486        -1.174312        -1.801978
 H        -2.546286        -2.690597        -1.792254
