19
Iteration:  3786charge 0 multiplicity 1
 C         1.532986         0.686546        -0.084785
 C         0.122729         0.181476        -0.200898
 C        -0.890944         0.624464        -0.922500
 C        -1.958875        -0.282325        -0.562712
 C        -1.840988        -0.427349         0.887137
 C        -0.456366        -1.067778         0.557750
 O         0.160976        -1.839164         1.520754
 C        -1.223506        -1.752312        -0.673639
 O        -2.000715        -2.904300        -0.381706
 H         1.391274         1.781362         0.135128
 H         2.119415         0.107968         0.748483
 H         2.170372         0.595940        -0.993412
 H        -0.745761         1.278845        -1.814083
 H        -2.948736        -0.137546        -0.999921
 H        -1.858395         0.443895         1.465821
 H        -2.695154        -1.058648         1.307606
 H         0.544964        -2.762197         1.211019
 H        -0.629918        -1.940858        -1.672984
 H        -2.298070        -2.831654         0.525902
