19
Iteration:  1501charge 0 multiplicity 1
 C         1.537052         0.699177         0.150754
 C         0.067315         0.224398        -0.017655
 C        -0.985327         0.759672        -0.699379
 C        -2.069391        -0.316908        -0.439680
 C        -1.754821        -0.742220         1.065175
 C        -0.413455        -1.111135         0.430324
 O         0.541370        -2.060723         0.966344
 C        -1.296699        -1.519352        -0.819195
 O        -2.257546        -2.680527        -0.438963
 H         2.006107         1.095019        -0.706351
 H         1.514359         1.501894         0.970927
 H         2.214782        -0.091994         0.355293
 H        -1.125168         1.616368        -1.301204
 H        -3.071538        -0.141702        -0.831018
 H        -1.950667        -0.031502         1.795888
 H        -2.168684        -1.721882         1.384870
 H         0.448235        -2.078759         1.980960
 H        -0.750949        -1.685250        -1.753171
 H        -1.640305        -3.388576        -0.257102
