19
Iteration:   832
 C         1.508873         0.633546        -0.018194
 C         0.102193         0.224624         0.075470
 C        -1.033377         0.929980        -0.280324
 C        -2.145818        -0.153276        -0.186092
 C        -1.761094        -0.809594         1.174210
 C        -0.532337        -1.177325         0.386614
 O         0.551369        -2.084111         0.762166
 C        -1.379596        -1.466156        -0.854534
 O        -1.934559        -2.817756        -0.554968
 H         2.054130         0.231975        -0.847475
 H         1.785327         1.794907        -0.159424
 H         2.143158         0.371874         0.830483
 H        -0.953729         1.850227        -0.903567
 H        -3.164055         0.089464        -0.500576
 H        -1.724644        -0.036396         1.958332
 H        -2.472230        -1.663994         1.366142
 H         0.281406        -2.890613         0.310726
 H        -1.000400        -1.497554        -1.878237
 H        -2.875795        -2.868936        -0.923996
