19
Iteration:  4136
 C         1.594925         0.339905        -0.109132
 C         0.102584         0.229606        -0.251370
 C        -0.835399         0.533279        -1.171208
 C        -2.030749        -0.378749        -0.743819
 C        -1.958090        -0.275693         0.828686
 C        -0.538495        -0.888768         0.622303
 O         0.051505        -1.561786         1.728798
 C        -1.234152        -1.804910        -0.634620
 O        -1.825088        -2.992944        -0.154365
 H         2.053990        -0.634890        -0.362301
 H         2.157999         1.119199        -0.670453
 H         1.875163         0.549650         0.915912
 H        -0.745220         1.306979        -2.003436
 H        -2.914648        -0.168631        -1.333904
 H        -1.882192         0.775856         1.315713
 H        -2.539507        -0.865822         1.478530
 H         1.042491        -1.679954         1.530275
 H        -0.512175        -2.020594        -1.499805
 H        -2.338569        -3.421371        -0.892413
