19
Iteration:  2809charge 0 multiplicity 1
 C         1.511373         0.708985         0.018558
 C         0.081326         0.209293         0.092954
 C        -1.064855         0.858411        -0.227033
 C        -2.172886        -0.227627        -0.021601
 C        -1.638342        -0.838999         1.344266
 C        -0.490699        -1.195342         0.376167
 O         0.319697        -2.237223         0.778478
 C        -1.462291        -1.355037        -0.833830
 O        -1.839447        -2.693216        -1.052214
 H         2.214057         0.079128        -0.544434
 H         1.691534         1.705412        -0.479886
 H         1.980567         0.697880         1.067300
 H        -1.389562         1.742137        -0.669497
 H        -3.230104         0.056382        -0.240377
 H        -1.261281        -0.188566         2.141643
 H        -2.097534        -1.813238         1.675251
 H         1.267196        -2.085874         0.576701
 H        -1.166110        -0.968314        -1.859214
 H        -1.824892        -3.126954        -0.171063
