19
Iteration:  3896charge 0 multiplicity 1
 C         1.557813         0.443550        -0.171624
 C         0.116135         0.223823        -0.146047
 C        -0.791976         0.582293        -1.014385
 C        -1.990753        -0.312393        -0.631314
 C        -1.980434        -0.427048         0.894530
 C        -0.561075        -1.027582         0.596767
 O         0.169575        -1.665603         1.630282
 C        -1.245855        -1.692732        -0.647626
 O        -1.941803        -2.929181        -0.370842
 H         2.138702        -0.243580        -0.837181
 H         1.787764         1.446420        -0.653223
 H         2.033380         0.575796         0.823010
 H        -0.824550         1.413889        -1.664507
 H        -2.973065        -0.233518        -1.202867
 H        -2.116784         0.463083         1.464778
 H        -2.646931        -1.223941         1.321807
 H         1.004223        -1.944884         1.271391
 H        -0.618700        -1.858021        -1.595772
 H        -1.646720        -3.218970         0.505630
