19
Iteration:  4969
 C         1.528550         0.509286        -0.029038
 C         0.215836        -0.033499        -0.377478
 C        -0.521875         0.097837        -1.435202
 C        -1.800485        -0.651375        -1.074703
 C        -1.989602        -0.098750         0.330853
 C        -0.611009        -0.818074         0.569338
 O        -0.127877        -1.190685         1.923898
 C        -1.108073        -1.960845        -0.339689
 O        -2.092513        -2.913113         0.233707
 H         1.300562         1.297360         0.749151
 H         2.353748        -0.215749         0.308875
 H         1.872490         1.009751        -0.978077
 H        -0.394405         0.629938        -2.315480
 H        -2.543181        -0.808076        -1.859318
 H        -1.961371         0.988765         0.375753
 H        -2.918498        -0.485023         0.920033
 H         0.360186        -0.548450         2.369817
 H        -0.291853        -2.619752        -0.822100
 H        -1.789209        -2.984646         1.158415
