19
Iteration:    58charge 0 multiplicity 1
 C         1.411305         0.742773         0.309783
 C         0.110532         0.169656         0.086120
 C        -1.076349         0.879317        -0.262236
 C        -2.163150        -0.152469         0.031930
 C        -1.544846        -1.023846         1.268969
 C        -0.408608        -1.264972         0.308123
 O         0.604892        -2.232189         0.325524
 C        -1.485931        -1.341741        -0.810629
 O        -2.134942        -2.561617        -0.794883
 H         2.306148         0.037060         0.480391
 H         1.708519         1.378242        -0.519624
 H         1.442562         1.408963         1.103281
 H        -1.172010         1.970060        -0.236155
 H        -3.230735         0.117840        -0.036830
 H        -1.406445        -0.356295         2.111766
 H        -2.013772        -1.928763         1.543012
 H         0.529762        -2.760591         1.166833
 H        -1.100390        -0.977527        -1.760059
 H        -1.661560        -3.160886        -1.426621
