19
Iteration:  3170charge 0 multiplicity 1
 C         1.465786         0.527705         0.009300
 C         0.013581         0.206926         0.013002
 C        -1.130578         0.805153        -0.496853
 C        -2.161101        -0.181289        -0.215198
 C        -1.748384        -0.706660         1.181275
 C        -0.419310        -1.120730         0.438758
 O         0.516945        -2.008510         0.994547
 C        -1.259122        -1.456276        -0.828640
 O        -1.896519        -2.760307        -0.659262
 H         1.687468         1.435447         0.459613
 H         1.864160        -0.159341         0.752061
 H         1.943685         0.343668        -0.955639
 H        -1.260843         1.713106        -1.191202
 H        -3.164353         0.125652        -0.453421
 H        -1.595315        -0.038480         1.996653
 H        -2.495351        -1.511445         1.538123
 H         0.219503        -2.954392         0.708487
 H        -0.869874        -1.491476        -1.811032
 H        -2.337453        -2.919075        -1.494760
