19
Iteration:  1434
 C         1.569378         0.639575        -0.015433
 C         0.135960         0.244780        -0.128111
 C        -1.006869         0.799748        -0.709786
 C        -2.107052        -0.230334        -0.267172
 C        -1.703615        -0.695811         1.140517
 C        -0.468915        -1.164891         0.425231
 O         0.281715        -2.044023         1.296854
 C        -1.365414        -1.503029        -0.847295
 O        -2.025893        -2.806585        -0.620651
 H         1.548006         1.675203        -0.017613
 H         1.968633         0.377441         1.017109
 H         2.225887         0.362647        -0.832245
 H        -1.107565         1.689111        -1.354208
 H        -3.209116        -0.259902        -0.402104
 H        -1.624791         0.043598         1.930883
 H        -2.380122        -1.437445         1.487073
 H         1.136926        -1.664051         1.067361
 H        -0.895877        -1.663658        -1.765279
 H        -1.369530        -3.462251        -0.991552
