19
Iteration:  3249
 C         1.459315         0.737651         0.057482
 C         0.100871         0.240907        -0.062016
 C        -1.014830         0.723844        -0.663500
 C        -2.158730        -0.290715        -0.211079
 C        -1.646863        -0.745479         1.227043
 C        -0.393075        -1.151480         0.414093
 O         0.459442        -2.056034         1.035724
 C        -1.293199        -1.517985        -0.760187
 O        -2.113099        -2.684023        -0.714168
 H         1.882927         0.232024         0.923787
 H         2.052376         0.605126        -0.846933
 H         1.588328         1.767978         0.312380
 H        -1.285485         1.644589        -1.096280
 H        -3.133866         0.165844        -0.537306
 H        -1.447588         0.085131         1.999090
 H        -2.231784        -1.618698         1.467545
 H         0.047000        -2.903754         1.296550
 H        -0.927175        -1.436976        -1.796023
 H        -1.689368        -3.523650        -0.766663
