19
Iteration:  1870
 C         1.480926         0.502281        -0.184545
 C         0.070636         0.223047         0.031078
 C        -1.065655         0.897132        -0.409833
 C        -2.169794        -0.123431        -0.202867
 C        -1.773671        -0.790441         1.219547
 C        -0.493420        -1.129797         0.506280
 O         0.412773        -2.056732         1.052495
 C        -1.340964        -1.438603        -0.839530
 O        -1.738661        -2.787931        -0.717462
 H         1.822749         0.285052        -1.257775
 H         1.789597         1.532437        -0.119066
 H         2.216843        -0.026015         0.467225
 H        -1.027616         1.878232        -0.862792
 H        -3.239640         0.068339        -0.252546
 H        -1.741178        -0.073871         2.056445
 H        -2.552447        -1.630101         1.309866
 H        -0.127089        -2.833941         1.064798
 H        -0.885776        -1.289940        -1.855662
 H        -2.486681        -2.941429        -1.217884
