19
Iteration:   163
 C         1.412237         0.642821        -0.207167
 C         0.085621         0.269524         0.293271
 C        -1.103849         0.929632         0.005067
 C        -2.141156        -0.203927         0.014861
 C        -1.677585        -1.012588         1.289567
 C        -0.444658        -1.168427         0.419894
 O         0.521931        -2.237721         0.637991
 C        -1.355914        -1.320731        -0.886968
 O        -1.867308        -2.621640        -0.959866
 H         1.285843         0.868664        -1.232202
 H         1.725370         1.513736         0.450125
 H         2.000009        -0.332224        -0.048442
 H        -1.300240         1.938691        -0.328700
 H        -3.188932         0.042275         0.016384
 H        -1.447979        -0.327136         2.152685
 H        -2.360313        -1.843642         1.599267
 H        -0.045167        -2.960749         0.987622
 H        -0.842991        -0.993289        -1.830386
 H        -2.541544        -2.657968        -1.639316
