19
Iteration:  3595charge 0 multiplicity 1
 C         1.582208         0.523723        -0.026588
 C         0.121192         0.149374        -0.096013
 C        -0.955634         0.730884        -0.744870
 C        -2.157347        -0.316637        -0.482642
 C        -1.827712        -0.574948         1.068722
 C        -0.483628        -1.066142         0.467230
 O         0.358962        -1.727615         1.309925
 C        -1.265671        -1.614959        -0.782564
 O        -2.032878        -2.886213        -0.495877
 H         1.811654         1.427601         0.545831
 H         2.137854        -0.244666         0.536305
 H         2.244719         0.648038        -0.929206
 H        -0.856470         1.475163        -1.585920
 H        -3.221905        -0.058185        -0.811017
 H        -1.615399         0.356672         1.695303
 H        -2.499369        -1.221659         1.623062
 H        -0.203872        -2.161461         1.900145
 H        -0.592860        -1.684768        -1.675365
 H        -1.549795        -3.551279        -1.027999
