19
Iteration:  3634charge 0 multiplicity 1
 C         1.605339         0.566333        -0.191422
 C         0.133460         0.224627        -0.107615
 C        -0.984242         0.718581        -0.825049
 C        -2.062789        -0.262988        -0.557147
 C        -1.963920        -0.505663         1.047047
 C        -0.528700        -1.059931         0.654779
 O         0.370878        -1.897881         1.410916
 C        -1.215233        -1.643295        -0.626277
 O        -2.006527        -2.798993        -0.514367
 H         1.784927         0.469772         0.881020
 H         2.200246        -0.074861        -0.843260
 H         1.638555         1.624440        -0.458612
 H        -0.646798         1.364690        -1.684348
 H        -3.110619        -0.282793        -0.847307
 H        -1.990364         0.365243         1.620323
 H        -2.681072        -1.322912         1.397022
 H         0.265081        -2.894440         1.106932
 H        -0.605146        -1.756396        -1.538515
 H        -1.456223        -3.648195        -0.564942
