19
Iteration:  4520
 C         1.581104         0.578778        -0.045043
 C         0.184055         0.078320        -0.318203
 C        -0.677038         0.313021        -1.309197
 C        -1.941837        -0.468558        -0.948036
 C        -1.901754        -0.163534         0.617096
 C        -0.631983        -0.919106         0.537743
 O        -0.070399        -1.503330         1.765536
 C        -1.204760        -1.906564        -0.490518
 O        -1.958335        -2.931881         0.075128
 H         1.760210         0.754010         1.041829
 H         2.234309        -0.265503        -0.373138
 H         1.786283         1.545229        -0.559386
 H        -0.650815         1.237016        -1.958974
 H        -2.846238        -0.308131        -1.611900
 H        -1.897704         0.829328         1.035406
 H        -2.781334        -0.777958         1.099703
 H         0.930372        -1.724036         1.639388
 H        -0.386281        -2.355792        -1.132006
 H        -1.561536        -2.983482         0.993468
