19
Iteration:   971
 C         1.503507         0.645637         0.082729
 C         0.087081         0.191969        -0.096630
 C        -1.056692         0.861551        -0.403135
 C        -2.123358        -0.299743        -0.207337
 C        -1.702916        -0.790669         1.127295
 C        -0.408204        -1.145445         0.390441
 O         0.624814        -2.029754         0.979844
 C        -1.367987        -1.534774        -0.849868
 O        -2.199800        -2.670927        -0.708257
 H         1.447077         1.305295         1.005073
 H         2.204766        -0.121457         0.219701
 H         1.904237         1.078694        -0.879788
 H        -1.171864         1.758657        -0.974736
 H        -3.128479        -0.148117        -0.576001
 H        -1.647050        -0.058129         1.859309
 H        -2.280866        -1.707565         1.372870
 H         0.305792        -2.035876         1.955972
 H        -0.936917        -1.342542        -1.861111
 H        -1.635623        -3.523487        -0.868388
