19
Iteration:  2356charge 0 multiplicity 1
 C         1.544637         0.603226        -0.087989
 C         0.065315         0.236880         0.103959
 C        -1.079949         0.822195        -0.158788
 C        -2.234937        -0.261902         0.042609
 C        -1.650357        -0.813730         1.368747
 C        -0.412091        -1.107143         0.391007
 O         0.449259        -2.130454         0.746743
 C        -1.425993        -1.323802        -0.776524
 O        -1.942970        -2.750261        -0.986224
 H         1.759219         1.418884         0.666725
 H         2.065680        -0.336468         0.146281
 H         1.736686         0.925799        -1.117343
 H        -1.241405         1.914779        -0.358714
 H        -3.260966        -0.042680        -0.303808
 H        -1.593650         0.049071         2.107571
 H        -1.958956        -1.801662         1.912024
 H         0.526290        -2.703183         0.022133
 H        -0.943618        -1.127241        -1.720264
 H        -1.831149        -2.941382        -1.993189
