19
Iteration:  4638
 C         1.591391         0.441646        -0.180291
 C         0.151294        -0.016779        -0.291550
 C        -0.593565         0.196522        -1.360727
 C        -1.866134        -0.515268        -0.899080
 C        -2.018422        -0.257686         0.596343
 C        -0.598909        -0.852700         0.747965
 O         0.006566        -1.175778         1.945381
 C        -1.160615        -1.880470        -0.441515
 O        -2.122632        -2.879614        -0.098886
 H         1.857081         0.908343        -1.157777
 H         1.507775         1.296902         0.472274
 H         2.378086        -0.208916         0.178659
 H        -0.151938         0.567385        -2.326117
 H        -2.794863        -0.617294        -1.556194
 H        -2.136058         0.693271         1.081322
 H        -2.841874        -0.889526         1.063917
 H         0.919388        -1.121300         1.732016
 H        -0.278864        -2.313408        -0.881300
 H        -1.644102        -3.661996        -0.041892
