19
Iteration:  1618
 C         1.543909         0.486235        -0.253995
 C         0.110560         0.232329         0.124787
 C        -1.008839         0.927683        -0.335376
 C        -2.110138        -0.245645        -0.369099
 C        -1.851560        -0.794123         1.039718
 C        -0.512890        -1.148898         0.465847
 O         0.451844        -1.919454         1.244630
 C        -1.262873        -1.640395        -0.898020
 O        -2.060143        -2.718477        -0.725209
 H         2.167370        -0.371940        -0.029367
 H         1.587960         0.914695        -1.270811
 H         2.140491         1.154440         0.439261
 H        -0.997058         2.009714        -0.653827
 H        -3.146891         0.112474        -0.546324
 H        -1.766386        -0.030274         1.914345
 H        -2.410780        -1.657015         1.455012
 H         0.604772        -1.238849         1.987858
 H        -0.538937        -1.838731        -1.741022
 H        -1.773499        -3.518358        -1.023214
