19
Iteration:  3494charge 0 multiplicity 1
 C         1.509413         0.704963         0.039374
 C         0.159149         0.131795        -0.099147
 C        -0.906468         0.720819        -0.704351
 C        -2.092460        -0.227540        -0.400035
 C        -1.833886        -0.555287         1.012035
 C        -0.534459        -1.110053         0.511032
 O         0.283577        -2.030601         1.164608
 C        -1.290269        -1.602867        -0.822143
 O        -1.906283        -2.889122        -0.449355
 H         2.426448         0.104208        -0.169414
 H         1.698324         1.536213        -0.614477
 H         1.507530         1.238592         1.055281
 H        -0.986737         1.522193        -1.346244
 H        -3.103690        -0.122315        -0.757301
 H        -1.722286         0.313608         1.614070
 H        -2.496733        -1.342130         1.577389
 H         0.891823        -1.465198         1.733085
 H        -0.716749        -1.556157        -1.775183
 H        -2.627795        -3.135068        -1.068561
