19
Iteration:  1226
 C         1.520423         0.660181         0.133642
 C         0.149936         0.189635        -0.193523
 C        -0.985188         0.792002        -0.720049
 C        -2.159452        -0.232431        -0.226801
 C        -1.677730        -0.647934         1.211731
 C        -0.453894        -1.165134         0.434311
 O         0.499149        -1.975306         1.073720
 C        -1.464692        -1.585204        -0.711073
 O        -2.046322        -2.853032        -0.740859
 H         2.066219         1.020936        -0.709830
 H         1.566122         1.634667         0.732894
 H         2.139686         0.019154         0.721413
 H        -1.114289         1.835872        -0.837256
 H        -3.173038         0.016524        -0.570278
 H        -1.679250         0.235243         1.870686
 H        -2.291585        -1.392443         1.633174
 H         0.849317        -2.783054         0.566575
 H        -1.133671        -1.427963        -1.757656
 H        -2.585751        -2.911244         0.003960
