19
Iteration:  2191
 C         1.495807         0.630233         0.154745
 C         0.059652         0.200107         0.044749
 C        -1.084446         0.796729        -0.302901
 C        -2.118125        -0.273362        -0.172381
 C        -1.766492        -0.805720         1.180098
 C        -0.446209        -1.145476         0.366196
 O         0.551558        -2.089527         0.575080
 C        -1.344639        -1.411261        -0.815596
 O        -1.996264        -2.642340        -0.577245
 H         2.163496         0.034075        -0.479242
 H         1.652667         1.736378        -0.033781
 H         1.939068         0.479855         1.152270
 H        -1.234493         1.851667        -0.575390
 H        -3.130549        -0.006047        -0.353453
 H        -1.423451        -0.155191         2.033626
 H        -2.259466        -1.760774         1.564841
 H         0.173573        -3.030398         0.632916
 H        -0.984646        -1.299120        -1.840254
 H        -2.283932        -2.897364        -1.405719
