19
Iteration:  3500charge 0 multiplicity 1
 C         1.488932         0.703733         0.052463
 C         0.184307         0.166080        -0.179378
 C        -0.892859         0.725196        -0.684657
 C        -2.051818        -0.218742        -0.418192
 C        -1.850494        -0.559086         1.048791
 C        -0.538918        -1.123205         0.472547
 O         0.265696        -2.029961         1.180647
 C        -1.296574        -1.592421        -0.804117
 O        -1.907637        -2.941653        -0.437899
 H         2.410782         0.254415        -0.331074
 H         1.513146         1.720175        -0.470613
 H         1.750578         1.031125         1.054923
 H        -0.999196         1.673573        -1.298214
 H        -3.075602        -0.055221        -0.785552
 H        -1.820726         0.281957         1.806526
 H        -2.602335        -1.241840         1.335810
 H         0.966343        -1.560653         1.784061
 H        -0.600382        -1.586518        -1.667971
 H        -2.743176        -3.072745        -1.028118
