19
Iteration:   545charge 0 multiplicity 1
 C         1.471922         0.684724         0.216026
 C         0.116736         0.318925        -0.070961
 C        -1.142321         0.914203        -0.384112
 C        -2.181213        -0.125835        -0.026654
 C        -1.604229        -0.717194         1.290552
 C        -0.436719        -1.179728         0.301973
 O         0.439917        -2.268016         0.657625
 C        -1.474024        -1.432365        -0.824259
 O        -1.834851        -2.838296        -0.666978
 H         1.917250         1.576166        -0.235454
 H         1.522918         0.663059         1.367427
 H         2.106926        -0.174910        -0.182105
 H        -1.239929         1.970178        -0.815067
 H        -3.255460         0.117083        -0.252143
 H        -1.235744         0.068220         2.067655
 H        -2.118422        -1.638156         1.713932
 H         0.188014        -3.015095         0.020076
 H        -1.263646        -1.237330        -1.874038
 H        -2.258749        -3.050651        -1.568242
