19
Iteration:  2600
 C         1.559168         0.571724        -0.033532
 C         0.038129         0.223143         0.109906
 C        -1.101134         0.887497        -0.048505
 C        -2.212478        -0.219773         0.098586
 C        -1.631974        -0.988873         1.307203
 C        -0.489157        -1.197999         0.384296
 O         0.635929        -2.029110         0.704661
 C        -1.472018        -1.299842        -0.834050
 O        -1.989980        -2.690592        -1.065789
 H         1.714554         1.430546        -0.665537
 H         1.915257         0.658646         0.981224
 H         2.000402        -0.382123        -0.425297
 H        -1.290729         1.877858        -0.600672
 H        -3.251589        -0.026908        -0.100784
 H        -1.545110        -0.274126         2.236077
 H        -2.219711        -1.905394         1.434510
 H         0.308005        -2.887096         1.061720
 H        -1.105528        -0.877690        -1.767480
 H        -2.100948        -2.670555        -2.063545
