19
Iteration:  2342
 C         1.498921         0.520927        -0.051254
 C         0.075430         0.291683         0.049329
 C        -1.161014         0.925231        -0.204814
 C        -2.165106        -0.259655         0.012745
 C        -1.588218        -0.883072         1.332101
 C        -0.435017        -1.115533         0.450041
 O         0.475514        -2.097004         0.814112
 C        -1.482079        -1.411531        -0.818761
 O        -1.888071        -2.691957        -0.980035
 H         1.994571         1.174662         0.593692
 H         2.154907        -0.399825        -0.015479
 H         1.707144         0.935946        -1.043351
 H        -1.462461         1.902475        -0.405741
 H        -3.169798         0.052742         0.083944
 H        -1.376679        -0.315416         2.244574
 H        -2.135591        -1.839058         1.471313
 H         0.250213        -2.909750         0.239453
 H        -1.203244        -0.867105        -1.742266
 H        -2.029956        -2.790499        -1.878271
