19
Iteration:   899charge 0 multiplicity 1
 C         1.471905         0.603431        -0.146096
 C         0.090809         0.169271        -0.000302
 C        -1.052364         0.817340        -0.420048
 C        -2.152632        -0.196964        -0.119982
 C        -1.708165        -0.752348         1.262136
 C        -0.430674        -1.169514         0.474596
 O         0.461243        -2.012161         1.062469
 C        -1.398932        -1.429470        -0.797269
 O        -1.941487        -2.768469        -0.855797
 H         1.527944         1.375601        -0.843000
 H         2.092717         1.108283         0.745821
 H         1.997752        -0.316652        -0.404966
 H        -1.109923         1.870437        -0.508511
 H        -3.250224        -0.031197        -0.207713
 H        -1.527962         0.011626         2.106564
 H        -2.283600        -1.652688         1.557989
 H         0.258426        -2.965723         0.892482
 H        -1.024024        -1.159191        -1.787294
 H        -1.795465        -3.115135        -1.764953
