19
Iteration:  2392charge 0 multiplicity 1
 C         1.413126         0.750385        -0.027768
 C         0.035113         0.220108         0.117357
 C        -1.034529         0.866231        -0.275069
 C        -2.129054        -0.169854        -0.037514
 C        -1.669378        -1.011679         1.250277
 C        -0.346659        -1.177086         0.416952
 O         0.560023        -2.255525         0.726714
 C        -1.351227        -1.343465        -0.776875
 O        -2.110522        -2.614724        -0.796644
 H         1.581446         1.799718         0.401537
 H         2.163021         0.193509         0.495206
 H         1.809578         0.827735        -1.070047
 H        -1.099204         1.940618        -0.483692
 H        -3.197106         0.015561        -0.319699
 H        -1.704841        -0.454085         2.211696
 H        -2.142893        -2.006565         1.290194
 H         0.397989        -2.957925         0.163161
 H        -0.980995        -0.932850        -1.743456
 H        -1.987325        -2.984709        -1.705008
