19
Iteration:   972charge 0 multiplicity 1
 C         1.491611         0.643065         0.084425
 C         0.102194         0.184016        -0.099950
 C        -1.058152         0.861645        -0.408766
 C        -2.127229        -0.288154        -0.196665
 C        -1.707213        -0.781946         1.124829
 C        -0.404212        -1.140033         0.389112
 O         0.616946        -2.035104         0.975258
 C        -1.376826        -1.533754        -0.845566
 O        -2.186457        -2.676640        -0.707565
 H         1.420421         1.291646         0.996120
 H         2.261679        -0.127252         0.206401
 H         1.928529         1.126103        -0.840874
 H        -1.182486         1.776894        -0.947184
 H        -3.147685        -0.155931        -0.568980
 H        -1.660020        -0.049482         1.858435
 H        -2.268906        -1.696380         1.353673
 H         0.327380        -2.044130         1.953090
 H        -0.934147        -1.381348        -1.870817
 H        -1.636467        -3.553439        -0.871912
