19
Iteration:  4156
 C         1.596547         0.357001        -0.020305
 C         0.103469         0.099829        -0.299953
 C        -0.910896         0.489139        -1.108947
 C        -1.962772        -0.473839        -0.721097
 C        -1.885416        -0.146444         0.827061
 C        -0.577721        -0.966536         0.558180
 O         0.052241        -1.491928         1.627155
 C        -1.170145        -1.767094        -0.529255
 O        -1.876496        -2.927557        -0.174699
 H         2.092780        -0.297081        -0.835949
 H         1.753421         1.422821        -0.262800
 H         1.908446         0.043498         0.978854
 H        -0.897705         1.352382        -1.767297
 H        -2.972536        -0.496863        -1.165111
 H        -1.818954         0.926078         1.136094
 H        -2.699114        -0.615648         1.384263
 H         0.751825        -2.030056         1.353470
 H        -0.390195        -2.041751        -1.364151
 H        -1.827852        -3.512050        -1.007367
