19
Iteration:   303
 C         1.448851         0.782998         0.230484
 C         0.137021         0.173732        -0.090726
 C        -1.122358         0.826165        -0.268976
 C        -2.131629        -0.283599         0.024992
 C        -1.457768        -0.900250         1.307586
 C        -0.383492        -1.253299         0.287324
 O         0.641470        -2.235541         0.605111
 C        -1.504357        -1.403802        -0.792147
 O        -2.287868        -2.544274        -0.927724
 H         1.282712         1.583821         0.938821
 H         2.024046        -0.097958         0.626651
 H         1.950765         1.311858        -0.645196
 H        -1.406957         1.964126        -0.477204
 H        -3.204339        -0.127068         0.011510
 H        -1.309192        -0.202133         2.199764
 H        -1.918482        -1.837359         1.735313
 H         0.983423        -2.009958         1.443586
 H        -1.169412        -1.056430        -1.797883
 H        -1.691404        -3.227206        -1.156044
