19
Iteration:  2226charge 0 multiplicity 1
 C         1.480203         0.726323         0.224113
 C         0.099613         0.259533        -0.068320
 C        -1.039734         0.855084        -0.334013
 C        -2.130922        -0.197530        -0.054578
 C        -1.632087        -0.762218         1.241779
 C        -0.428287        -1.232499         0.335944
 O         0.593339        -2.140074         0.684953
 C        -1.492013        -1.440536        -0.794834
 O        -2.077687        -2.778309        -0.730290
 H         2.138639        -0.188924         0.411986
 H         1.872623         1.297429        -0.589367
 H         1.375584         1.313821         1.124004
 H        -1.237143         1.684603        -0.905435
 H        -3.167447         0.125869        -0.132793
 H        -1.328406        -0.200438         2.136071
 H        -2.114397        -1.745272         1.508572
 H         0.361698        -2.892738         0.078171
 H        -1.202163        -1.084753        -1.786753
 H        -2.187021        -2.980563        -1.597544
