19
Iteration:  1456
 C         1.480492         0.710379         0.056377
 C         0.193669         0.138936        -0.138507
 C        -0.953700         0.660374        -0.645907
 C        -2.140460        -0.211275        -0.373623
 C        -1.733855        -0.560026         1.191723
 C        -0.422722        -1.067886         0.490324
 O         0.387198        -2.074927         1.093372
 C        -1.410152        -1.611160        -0.724134
 O        -2.067986        -2.819334        -0.654394
 H         1.538380         1.689676        -0.289191
 H         1.648235         0.745848         1.180450
 H         2.275417         0.183105        -0.478632
 H        -1.051083         1.623947        -1.093470
 H        -3.128130         0.155373        -0.734980
 H        -1.608616         0.229813         1.920952
 H        -2.401323        -1.264257         1.633388
 H         1.045061        -1.522782         1.593841
 H        -0.930731        -1.640104        -1.691442
 H        -1.621944        -3.481188        -1.213857
