19
Iteration:  1623charge 0 multiplicity 1
 C         1.556537         0.486355        -0.236254
 C         0.106014         0.242343         0.130864
 C        -1.017952         0.878169        -0.335149
 C        -2.106116        -0.225559        -0.380693
 C        -1.826430        -0.799947         1.068538
 C        -0.504544        -1.174755         0.436788
 O         0.454843        -1.897268         1.258783
 C        -1.243717        -1.613268        -0.855779
 O        -2.102703        -2.708019        -0.747895
 H         2.176054        -0.420603        -0.013390
 H         1.716257         0.769939        -1.331967
 H         1.997213         1.290603         0.370013
 H        -1.004550         1.919587        -0.665373
 H        -3.172891        -0.044068        -0.536572
 H        -1.982744         0.040730         1.696052
 H        -2.291511        -1.704872         1.470025
 H         0.741452        -1.229940         1.907019
 H        -0.665880        -1.695488        -1.771687
 H        -1.681202        -3.623732        -1.105620
