19
Iteration:  4635
 C         1.571100         0.440464        -0.185674
 C         0.166246        -0.016510        -0.285228
 C        -0.607907         0.172786        -1.377245
 C        -1.867448        -0.511008        -0.909405
 C        -2.001736        -0.259877         0.633772
 C        -0.624843        -0.855346         0.753608
 O         0.001179        -1.176027         1.954668
 C        -1.166185        -1.882969        -0.429118
 O        -2.123364        -2.871336        -0.122829
 H         1.941008         0.847849        -1.159668
 H         1.503560         1.390837         0.377203
 H         2.343019        -0.233978         0.248463
 H        -0.177801         0.620628        -2.288729
 H        -2.737358        -0.572807        -1.576212
 H        -2.067023         0.788267         1.034680
 H        -2.691416        -0.916967         1.029246
 H         1.006378        -1.054952         1.710551
 H        -0.205965        -2.276574        -0.910807
 H        -1.575886        -3.735924        -0.019481
