19
Iteration:  2058charge 0 multiplicity 1
 C         1.489805         0.550994        -0.079182
 C         0.030054         0.243883         0.026128
 C        -1.110323         0.948589        -0.255447
 C        -2.126044        -0.208689        -0.216159
 C        -1.751053        -0.919217         1.208612
 C        -0.419809        -1.129435         0.395355
 O         0.555655        -2.096056         0.835093
 C        -1.319978        -1.395572        -0.814472
 O        -1.976389        -2.673500        -0.672155
 H         1.747243         1.526007         0.239009
 H         1.962344        -0.307103         0.537645
 H         1.715306         0.404247        -1.157393
 H        -1.150651         1.986722        -0.295851
 H        -3.177709        -0.070957        -0.487149
 H        -1.576431        -0.075674         1.947248
 H        -2.416779        -1.807158         1.351012
 H        -0.101610        -2.715033         1.293286
 H        -1.006900        -1.190247        -1.855701
 H        -1.728547        -3.382792        -1.232084
