19
Iteration:  1149charge 0 multiplicity 1
 C         1.531000         0.535253        -0.244771
 C         0.108233         0.249070         0.050895
 C        -0.966871         0.857397        -0.368146
 C        -2.161931        -0.156894        -0.247372
 C        -1.842716        -0.789462         1.111619
 C        -0.448443        -1.081752         0.471901
 O         0.433231        -1.965335         1.120406
 C        -1.361104        -1.509896        -0.802151
 O        -1.949188        -2.817925        -0.651695
 H         1.955377         0.219677        -1.183514
 H         1.805598         1.646416        -0.321338
 H         2.341448         0.166487         0.404514
 H        -1.122468         1.806289        -0.934027
 H        -3.226313         0.006766        -0.471766
 H        -1.848614        -0.174156         2.032757
 H        -2.434385        -1.650751         1.288176
 H        -0.045790        -2.798203         1.405392
 H        -0.737484        -1.492991        -1.729152
 H        -1.690302        -3.300830        -1.514935
