19
Iteration:  2326
 C         1.506080         0.521647        -0.117154
 C         0.028150         0.272525         0.033699
 C        -1.176218         0.909424        -0.185413
 C        -2.222114        -0.113080         0.116202
 C        -1.700907        -0.972897         1.292386
 C        -0.423689        -1.224533         0.369913
 O         0.596441        -2.108876         0.815757
 C        -1.380837        -1.276690        -0.865893
 O        -1.881319        -2.683609        -0.908964
 H         1.783280         1.069095         0.873746
 H         1.905784        -0.462887        -0.032635
 H         1.883993         1.120853        -0.967323
 H        -1.260730         1.865803        -0.823145
 H        -3.313408        -0.012200        -0.198189
 H        -1.562165        -0.448288         2.244013
 H        -2.219275        -1.908776         1.540914
 H         0.099470        -3.035326         0.875507
 H        -0.891469        -1.018581        -1.826382
 H        -2.383102        -2.745685        -1.795693
