19
Iteration:  4362charge 0 multiplicity 1
 C         1.571646         0.461693        -0.218742
 C         0.148914         0.036336        -0.243005
 C        -0.788423         0.425878        -1.153616
 C        -1.997896        -0.326019        -0.836724
 C        -2.006541        -0.165618         0.715837
 C        -0.594303        -0.913787         0.656868
 O         0.006327        -1.486200         1.822798
 C        -1.117891        -1.844921        -0.493363
 O        -1.849428        -3.005584        -0.208416
 H         2.271282        -0.324423         0.076751
 H         1.989092         0.874969        -1.115052
 H         1.634397         1.203505         0.557628
 H        -0.446317         0.739396        -2.183083
 H        -2.812958        -0.256263        -1.548476
 H        -2.102531         0.918383         1.046209
 H        -2.665929        -0.777823         1.299597
 H         0.500949        -2.247001         1.618176
 H        -0.389031        -2.009936        -1.237269
 H        -2.047076        -3.193075         0.682997
