19
Iteration:  3591charge 0 multiplicity 1
 C         1.588403         0.541078        -0.008298
 C         0.155473         0.173127        -0.117206
 C        -0.954302         0.748066        -0.739557
 C        -2.156580        -0.285229        -0.449910
 C        -1.848547        -0.562365         1.049302
 C        -0.507076        -1.078309         0.463337
 O         0.398282        -1.748499         1.304319
 C        -1.274113        -1.636554        -0.781428
 O        -2.031947        -2.902345        -0.496830
 H         1.737437         1.535312         0.467143
 H         2.008970        -0.241843         0.605695
 H         2.208869         0.468727        -0.925705
 H        -0.887862         1.436055        -1.620804
 H        -3.122575        -0.034790        -0.928304
 H        -1.713151         0.296237         1.654550
 H        -2.536188        -1.307820         1.619882
 H        -0.208996        -2.073816         2.075090
 H        -0.687834        -1.737340        -1.647200
 H        -1.662073        -3.584201        -1.079579
