19
Iteration:  2978charge 0 multiplicity 1
 C         1.515189         0.756998         0.023436
 C         0.136323         0.175059         0.041511
 C        -0.998260         0.874182        -0.268408
 C        -2.122466        -0.233997        -0.249143
 C        -1.795176        -0.928125         1.207079
 C        -0.480586        -1.149160         0.369912
 O         0.380993        -2.180722         0.771626
 C        -1.365161        -1.397818        -0.830532
 O        -2.012753        -2.675960        -0.682015
 H         2.128570         0.561090         0.999121
 H         2.222779         0.386858        -0.782154
 H         1.426850         1.866142        -0.108065
 H        -1.050737         1.787536        -0.774956
 H        -3.134492        -0.026150        -0.575657
 H        -1.771031        -0.300769         2.152913
 H        -2.246004        -1.940340         1.333480
 H         0.930841        -1.914303         1.513667
 H        -0.831971        -1.399183        -1.727057
 H        -1.217221        -3.348359        -0.873129
