19
Iteration:   481charge 0 multiplicity 1
 C         1.498133         0.663083        -0.026348
 C         0.047307         0.251659         0.157629
 C        -1.079489         0.906519        -0.247669
 C        -2.080351        -0.262629        -0.123822
 C        -1.696713        -0.983982         1.221171
 C        -0.370278        -1.184600         0.402571
 O         0.649500        -2.050470         0.795984
 C        -1.336722        -1.454281        -0.881832
 O        -2.175729        -2.650245        -0.775749
 H         1.735381         0.436458        -1.049497
 H         1.626976         1.759621         0.175039
 H         2.032000         0.025073         0.674759
 H        -1.264918         1.963738        -0.431466
 H        -3.117896        -0.042956        -0.456790
 H        -1.555556        -0.361229         2.152576
 H        -2.182279        -1.998752         1.283590
 H         0.299846        -2.944376         0.753702
 H        -1.036712        -1.202003        -1.905278
 H        -2.850962        -2.515888        -1.413954
