19
Iteration:  3154
 C         1.548208         0.564687         0.041125
 C         0.077676         0.248045        -0.088259
 C        -1.074434         0.865931        -0.440939
 C        -2.171822        -0.275376        -0.226465
 C        -1.788379        -0.664527         1.227496
 C        -0.514796        -1.146103         0.420688
 O         0.448933        -2.041865         1.006420
 C        -1.418461        -1.455306        -0.797166
 O        -1.782351        -2.803333        -0.700186
 H         1.841321         1.687064        -0.131695
 H         2.074600         0.062344         0.888346
 H         2.159847         0.108748        -0.810110
 H        -1.298101         1.875679        -0.651467
 H        -3.244998        -0.196430        -0.551136
 H        -1.615673         0.290544         1.809258
 H        -2.227197        -1.512154         1.678571
 H         0.242859        -2.988886         0.595542
 H        -0.923506        -1.265030        -1.840831
 H        -2.524265        -3.050810        -1.391568
