19
Iteration:  1997charge 0 multiplicity 1
 C         1.453697         0.754927         0.172411
 C         0.081549         0.143566        -0.130308
 C        -1.044302         0.828576        -0.371619
 C        -2.092079        -0.191233        -0.146576
 C        -1.604573        -0.733030         1.210712
 C        -0.388263        -1.210396         0.334568
 O         0.620059        -2.085960         0.812576
 C        -1.418714        -1.515626        -0.782776
 O        -2.237241        -2.749096        -0.760220
 H         1.551603         0.876409         1.291897
 H         2.319560         0.176454        -0.157500
 H         1.583023         1.706101        -0.333704
 H        -0.995605         1.802404        -0.863751
 H        -3.119044         0.102351        -0.239173
 H        -1.341629        -0.034544         1.977785
 H        -2.245151        -1.474813         1.652091
 H         0.029027        -2.739881         1.329447
 H        -1.116485        -1.279102        -1.820873
 H        -1.600353        -3.563566        -0.998007
