19
Iteration:  2757
 C         1.547933         0.691026         0.144471
 C         0.092907         0.169289         0.194038
 C        -1.056335         0.847327        -0.206255
 C        -2.177569        -0.217435        -0.103984
 C        -1.765592        -0.987988         1.198052
 C        -0.458646        -1.175397         0.334842
 O         0.577808        -2.082451         0.665345
 C        -1.350632        -1.355505        -0.889744
 O        -2.106887        -2.634966        -0.814256
 H         2.212579         0.079872         0.750184
 H         2.010382         0.711433        -0.848116
 H         1.653460         1.694990         0.452492
 H        -1.176551         1.805160        -0.713880
 H        -3.237950         0.096301        -0.274322
 H        -1.798163        -0.389788         2.091542
 H        -2.223268        -2.032983         1.392251
 H         0.750314        -2.616445        -0.066528
 H        -1.124257        -1.154200        -1.891402
 H        -1.550149        -3.233120        -0.447003
