19
Iteration:  4300
 C         1.458022         0.491894        -0.050967
 C         0.099820         0.095560        -0.269735
 C        -0.769933         0.511643        -1.182625
 C        -1.869476        -0.439728        -0.848576
 C        -1.913314        -0.232334         0.741709
 C        -0.548737        -0.969297         0.600480
 O         0.108025        -1.600667         1.662307
 C        -1.127864        -1.844328        -0.520638
 O        -2.053749        -2.923740        -0.135411
 H         1.463357         1.084038         0.934886
 H         2.151849        -0.393758         0.089398
 H         1.789244         1.181911        -0.861344
 H        -0.657071         1.191433        -2.037759
 H        -2.759972        -0.415131        -1.443201
 H        -1.891505         0.869041         1.080007
 H        -2.685244        -0.773328         1.259279
 H         0.948466        -1.263455         1.603842
 H        -0.369023        -2.246677        -1.285073
 H        -1.775905        -3.071720         0.740972
