19
Iteration:  2967
 C         1.495061         0.730878         0.012196
 C         0.114604         0.231572         0.016040
 C        -1.013842         0.872788        -0.345240
 C        -2.123328        -0.182206        -0.123397
 C        -1.789168        -0.887004         1.143174
 C        -0.406017        -1.145729         0.463870
 O         0.325122        -2.246547         0.750536
 C        -1.296266        -1.428791        -0.816626
 O        -1.978172        -2.693945        -0.717080
 H         1.831513         0.830322         1.116957
 H         2.195215         0.138788        -0.652411
 H         1.371865         1.753097        -0.403669
 H        -1.192285         1.871387        -0.496354
 H        -3.118033         0.060505        -0.451982
 H        -1.984525        -0.366949         2.125394
 H        -2.366607        -1.852146         1.141114
 H         1.135367        -1.983636         1.343020
 H        -0.920178        -1.162699        -1.761826
 H        -1.243342        -3.410306        -0.579957
