19
Iteration:  1230
 C         1.503685         0.663552         0.147022
 C         0.142630         0.176174        -0.202030
 C        -0.987924         0.752345        -0.687707
 C        -2.172245        -0.221236        -0.245591
 C        -1.682774        -0.624682         1.219561
 C        -0.404376        -1.170190         0.398392
 O         0.515494        -1.961214         1.098051
 C        -1.451851        -1.577213        -0.752216
 O        -2.074011        -2.827692        -0.737570
 H         2.032975         1.026847        -0.752938
 H         1.581295         1.625154         0.815932
 H         2.114382        -0.023011         0.767007
 H        -1.110405         1.843995        -0.806806
 H        -3.229200        -0.106013        -0.542700
 H        -1.491220         0.225487         1.885570
 H        -2.365703        -1.504470         1.544105
 H         0.709305        -2.703129         0.510614
 H        -1.099623        -1.589553        -1.797122
 H        -2.529427        -3.026198         0.197023
