19
Iteration:  2296
 C         1.489175         0.648850        -0.079186
 C         0.088030         0.269443         0.198642
 C        -1.050685         0.859800        -0.159666
 C        -2.086958        -0.228284        -0.111755
 C        -1.766845        -0.960221         1.257091
 C        -0.438507        -1.240834         0.439469
 O         0.587299        -2.072031         0.665660
 C        -1.414491        -1.347464        -0.831704
 O        -2.016596        -2.707433        -0.844396
 H         2.142823         0.769182         0.747364
 H         1.967166        -0.140387        -0.649026
 H         1.558360         1.574707        -0.680185
 H        -1.258905         1.982667        -0.257454
 H        -3.096382        -0.174146        -0.557318
 H        -1.777169        -0.338116         2.135403
 H        -2.329499        -1.829284         1.334118
 H         0.474549        -2.599943         1.440163
 H        -0.846505        -1.092943        -1.745138
 H        -2.754791        -2.562768        -1.343462
