19
Iteration:   294charge 0 multiplicity 1
 C         1.445428         0.810028         0.237748
 C         0.068497         0.241200         0.017807
 C        -1.048519         0.761816        -0.325262
 C        -2.163096        -0.249334         0.021645
 C        -1.454669        -1.005456         1.277219
 C        -0.333642        -1.207060         0.300407
 O         0.682972        -2.206169         0.612038
 C        -1.543285        -1.432255        -0.843430
 O        -2.338154        -2.561958        -0.887340
 H         1.617926         1.633125         0.868405
 H         2.280174         0.145428         0.669126
 H         2.071092         1.068523        -0.713464
 H        -1.231955         1.918635        -0.408748
 H        -3.206610         0.050544        -0.022566
 H        -1.237740        -0.201899         2.085175
 H        -1.987051        -1.946248         1.560026
 H         0.746134        -1.969712         1.507944
 H        -1.317020        -1.094461        -1.904293
 H        -1.869026        -3.213617        -1.365468
