19
Iteration:  1050charge 0 multiplicity 1
 C         1.519518         0.738191         0.035547
 C         0.067738         0.219440        -0.074601
 C        -0.971664         0.898947        -0.447074
 C        -2.061680        -0.225858        -0.308902
 C        -1.833731        -0.803470         1.169451
 C        -0.433251        -1.173459         0.375513
 O         0.415198        -2.186128         0.872993
 C        -1.303925        -1.509971        -0.846796
 O        -2.075001        -2.767724        -0.575700
 H         2.257248         0.234272         0.643405
 H         2.063039         0.983317        -0.889760
 H         1.535034         1.650911         0.626247
 H        -0.877538         1.966948        -0.627626
 H        -3.095454         0.090804        -0.548183
 H        -1.760068        -0.063218         1.959122
 H        -2.474804        -1.609443         1.333506
 H         0.916014        -1.798090         1.673571
 H        -0.949747        -1.562171        -1.890115
 H        -1.820876        -3.234659         0.237210
