19
Iteration:  3065
 C         1.515753         0.704696         0.038999
 C         0.086620         0.234069         0.026985
 C        -1.032474         0.883788        -0.396323
 C        -2.107387        -0.184265        -0.278037
 C        -1.694758        -0.837093         1.209631
 C        -0.404862        -1.182285         0.448870
 O         0.666495        -2.006084         1.053093
 C        -1.476883        -1.518051        -0.891458
 O        -2.220755        -2.780363        -0.786363
 H         1.983119         0.059015        -0.788780
 H         1.639998         1.817580         0.044736
 H         1.865977         0.295307         1.003273
 H        -1.168643         1.912553        -0.853970
 H        -3.152628         0.050599        -0.580055
 H        -1.564822        -0.154120         2.079365
 H        -2.160178        -1.761652         1.501300
 H         0.376289        -2.961042         0.804210
 H        -0.893460        -1.423051        -1.822806
 H        -1.652346        -3.321861        -1.429683
