19
Iteration:  3907
 C         1.554589         0.529779        -0.149995
 C         0.107412         0.119186        -0.176526
 C        -0.882361         0.507504        -1.117392
 C        -1.949665        -0.336344        -0.609389
 C        -1.873700        -0.368629         0.958662
 C        -0.540923        -0.950814         0.627924
 O         0.093086        -1.704143         1.630973
 C        -1.203151        -1.725558        -0.648135
 O        -1.935849        -2.879721        -0.401273
 H         2.010781        -0.121620        -0.937807
 H         1.639994         1.638253        -0.341690
 H         2.013851         0.097108         0.785097
 H        -0.994152         1.440052        -1.537914
 H        -2.972758        -0.122402        -1.094395
 H        -1.968884         0.562475         1.463762
 H        -2.620491        -1.169058         1.249353
 H         0.836638        -2.051794         1.232456
 H        -0.406772        -1.863197        -1.479028
 H        -1.572314        -3.230663         0.507550
