19
Iteration:  2658
 C         1.454630         0.792830         0.088376
 C         0.120436         0.278478         0.173598
 C        -1.027724         0.859242        -0.080827
 C        -2.113388        -0.203816        -0.022044
 C        -1.709447        -0.914064         1.220331
 C        -0.437263        -1.211947         0.383410
 O         0.520801        -2.263860         0.474944
 C        -1.362063        -1.397256        -0.860357
 O        -2.104507        -2.704043        -0.823580
 H         1.500265         1.760805         0.535223
 H         2.191336         0.240815         0.689611
 H         1.895747         0.893070        -0.893050
 H        -1.202833         1.818139        -0.460994
 H        -3.098678         0.107915        -0.446003
 H        -1.646370        -0.243428         2.057758
 H        -2.279152        -1.834824         1.495908
 H         0.867862        -2.254874         1.368343
 H        -0.899587        -1.299023        -1.807031
 H        -2.054643        -3.017620        -1.677642
