19
Iteration:  4658
 C         1.687657         0.498182        -0.104544
 C         0.235876         0.077752        -0.308117
 C        -0.660492         0.209410        -1.271289
 C        -1.860756        -0.617630        -0.944421
 C        -2.081724        -0.237724         0.551257
 C        -0.599596        -0.866667         0.642996
 O        -0.037438        -1.189998         1.878686
 C        -1.194539        -1.934074        -0.472821
 O        -2.099734        -2.863232         0.073763
 H         1.980495         1.411004        -0.712581
 H         2.009206         0.831183         0.888876
 H         2.269640        -0.385774        -0.457040
 H        -0.485847         0.819461        -2.226327
 H        -2.599180        -0.600990        -1.814728
 H        -2.212900         0.841226         0.650886
 H        -2.711075        -0.871895         1.126389
 H         0.796282        -1.538779         1.655738
 H        -0.432103        -2.310276        -1.257298
 H        -1.719702        -3.742653        -0.040410
