19
Iteration:  2556charge 0 multiplicity 1
 C         1.442153         0.717072        -0.040204
 C         0.023079         0.279801         0.112808
 C        -1.138402         0.884535        -0.148612
 C        -2.123939        -0.241120         0.025569
 C        -1.612435        -0.987585         1.329361
 C        -0.341721        -1.265498         0.430711
 O         0.548800        -2.222511         0.829075
 C        -1.345565        -1.419390        -0.752183
 O        -2.103057        -2.539030        -1.092708
 H         1.565519         1.324275        -0.953920
 H         1.595421         1.308317         0.839156
 H         2.185746        -0.123470        -0.058672
 H        -1.258749         1.673561        -0.906077
 H        -3.183571        -0.128000        -0.050537
 H        -1.194529        -0.327791         2.220453
 H        -2.195280        -1.883242         1.605946
 H         0.827325        -2.637773        -0.059841
 H        -0.938356        -1.096972        -1.712805
 H        -2.334762        -2.405563        -2.065831
