19
Iteration:  1998charge 0 multiplicity 1
 C         1.466375         0.754531         0.170096
 C         0.080630         0.149358        -0.132036
 C        -1.036972         0.820437        -0.370389
 C        -2.094307        -0.192309        -0.145248
 C        -1.606843        -0.728674         1.212228
 C        -0.398815        -1.206099         0.344422
 O         0.621314        -2.087304         0.808085
 C        -1.425598        -1.516440        -0.783516
 O        -2.229546        -2.749509        -0.764967
 H         1.537487         0.890155         1.306607
 H         2.305151         0.167939        -0.128333
 H         1.570367         1.702605        -0.362436
 H        -1.020760         1.821465        -0.868109
 H        -3.130448         0.107039        -0.267543
 H        -1.355275        -0.059991         1.991860
 H        -2.240452        -1.456924         1.668249
 H         0.056966        -2.760476         1.332906
 H        -1.155646        -1.264459        -1.813736
 H        -1.610610        -3.595553        -0.983583
