19
Iteration:  2891charge 0 multiplicity 1
 C         1.512808         0.636960        -0.007486
 C         0.049964         0.226523         0.067621
 C        -1.054043         0.933163        -0.246354
 C        -2.136163        -0.245545        -0.121155
 C        -1.752416        -0.974797         1.200781
 C        -0.406826        -1.226505         0.434289
 O         0.606157        -2.094741         0.946790
 C        -1.431155        -1.423659        -0.862263
 O        -2.060304        -2.643880        -1.012408
 H         1.577872         1.685839        -0.307137
 H         1.865287         0.473533         0.974349
 H         2.083369         0.069447        -0.681916
 H        -1.169457         1.693091        -0.956787
 H        -3.187924        -0.113030        -0.279689
 H        -1.655736        -0.431758         2.179739
 H        -2.380592        -1.855178         1.452345
 H         1.344309        -1.664290         1.280685
 H        -0.930376        -1.138748        -1.757325
 H        -2.625191        -2.882756        -0.326639
