19
Iteration:   898charge 0 multiplicity 1
 C         1.469533         0.600246        -0.147576
 C         0.099173         0.169879         0.002916
 C        -1.059184         0.822795        -0.419658
 C        -2.152031        -0.195893        -0.112472
 C        -1.695302        -0.748993         1.264803
 C        -0.424461        -1.163721         0.471696
 O         0.447382        -2.017528         1.055874
 C        -1.399825        -1.431233        -0.797766
 O        -1.932790        -2.775251        -0.855108
 H         1.529595         1.369257        -0.867046
 H         2.062662         1.130567         0.763610
 H         1.960621        -0.348356        -0.369577
 H        -1.124135         1.886639        -0.528424
 H        -3.244800        -0.042605        -0.234126
 H        -1.551352         0.001670         2.082975
 H        -2.287412        -1.646382         1.558485
 H         0.233836        -2.939698         0.897517
 H        -1.018401        -1.157662        -1.788233
 H        -1.806971        -3.070254        -1.741176
