19
Iteration:  1480
 C         1.478757         0.746103         0.123462
 C         0.088593         0.225268        -0.054018
 C        -0.969025         0.752362        -0.708600
 C        -2.037570        -0.306442        -0.384227
 C        -1.829996        -0.586154         1.124936
 C        -0.452544        -1.165000         0.533256
 O         0.538587        -2.106879         0.939285
 C        -1.260526        -1.679509        -0.684284
 O        -2.176212        -2.680509        -0.570927
 H         1.822067         1.370768        -0.665580
 H         1.676692         1.256275         1.123060
 H         2.129058        -0.051015        -0.063382
 H        -1.075740         1.629231        -1.282938
 H        -3.033008        -0.174952        -0.802133
 H        -1.666365         0.243660         1.732708
 H        -2.650007        -1.159251         1.652877
 H         0.758245        -1.930439         1.819776
 H        -1.015639        -1.655948        -1.731682
 H        -1.917810        -3.638878        -0.958063
