19
Iteration:  1815charge 0 multiplicity 1
 C         1.516043         0.625339        -0.075860
 C         0.052110         0.288374        -0.017258
 C        -1.049124         0.794658        -0.497912
 C        -2.101480        -0.253786        -0.282536
 C        -1.738527        -0.839085         1.186927
 C        -0.385092        -1.125736         0.503284
 O         0.544622        -2.023521         1.081729
 C        -1.307377        -1.519676        -0.754550
 O        -2.138540        -2.649281        -0.692903
 H         1.855968         1.265783        -0.944804
 H         1.885990         1.277206         0.700875
 H         2.097267        -0.326620        -0.053025
 H        -1.141895         1.553472        -1.268901
 H        -3.115991        -0.136968        -0.636614
 H        -1.994430        -0.258151         2.078234
 H        -2.200558        -1.868605         1.442329
 H         0.213731        -2.899169         1.154410
 H        -0.879704        -1.324840        -1.776056
 H        -2.015651        -3.014404        -1.526184
