19
Iteration:  4418charge 0 multiplicity 1
 C         1.649321         0.433467        -0.099405
 C         0.169421         0.060648        -0.318079
 C        -0.740262         0.430677        -1.298374
 C        -1.936093        -0.399168        -0.813390
 C        -2.030250        -0.382840         0.752276
 C        -0.602194        -0.872284         0.662011
 O         0.063800        -1.331236         1.789976
 C        -1.196692        -1.844043        -0.585019
 O        -1.921028        -2.961765        -0.059028
 H         2.287838         0.449799        -1.011399
 H         1.589907         1.393242         0.393750
 H         2.119073        -0.213577         0.617340
 H        -0.571374         0.972892        -2.223422
 H        -2.839123        -0.401287        -1.412010
 H        -2.343160         0.586699         1.328841
 H        -2.601349        -1.209035         1.057656
 H         0.829325        -1.830454         1.544902
 H        -0.580960        -2.165857        -1.408190
 H        -2.898803        -2.865496        -0.024147
