19
Iteration:  1752
 C         1.508514         0.682578         0.222473
 C         0.041833         0.272294        -0.045759
 C        -1.015845         0.767969        -0.605915
 C        -2.072848        -0.217799        -0.316588
 C        -1.728128        -0.611833         1.207196
 C        -0.461533        -1.172130         0.438641
 O         0.548234        -2.128688         0.751108
 C        -1.358236        -1.548374        -0.765838
 O        -2.117908        -2.756282        -0.607850
 H         1.540194         1.715704         0.493850
 H         1.945160        -0.019094         1.067040
 H         2.150761         0.513392        -0.664285
 H        -1.135764         1.690403        -1.122835
 H        -3.118145         0.030059        -0.524797
 H        -1.726646         0.324228         1.744523
 H        -2.411946        -1.402117         1.566094
 H         0.525114        -2.574102         1.622584
 H        -0.924448        -1.610981        -1.799838
 H        -1.656924        -3.446373        -0.173401
