19
Iteration:  2754charge 0 multiplicity 1
 C         1.559260         0.685091         0.146480
 C         0.114798         0.161671         0.215013
 C        -1.058449         0.854076        -0.198882
 C        -2.174284        -0.225410        -0.081951
 C        -1.777487        -0.958128         1.158103
 C        -0.455641        -1.186160         0.330105
 O         0.603757        -2.068542         0.673669
 C        -1.357803        -1.370836        -0.892753
 O        -2.141927        -2.635518        -0.821305
 H         2.133140         0.114542         0.862647
 H         2.071700         0.682636        -0.857210
 H         1.564789         1.813335         0.389274
 H        -1.237280         1.728626        -0.717621
 H        -3.227304         0.061032        -0.257808
 H        -1.855360        -0.425945         2.158647
 H        -2.147875        -1.987539         1.367667
 H         0.790245        -2.602282        -0.191310
 H        -1.121419        -1.166437        -1.979943
 H        -1.528322        -3.337508        -0.405335
