19
Iteration:   344charge 0 multiplicity 1
 C         1.519459         0.704020         0.083136
 C         0.115087         0.252831         0.182123
 C        -1.124051         0.888590        -0.235721
 C        -2.171892        -0.227546        -0.026308
 C        -1.632956        -0.901122         1.282390
 C        -0.410936        -1.196051         0.362996
 O         0.447228        -2.300358         0.447662
 C        -1.507328        -1.323404        -0.788112
 O        -2.018300        -2.680187        -0.838660
 H         2.062185         1.053864         1.039978
 H         2.262225         0.063043        -0.297945
 H         1.697178         1.608769        -0.464014
 H        -1.160773         2.005864        -0.546853
 H        -3.214244         0.044289        -0.254571
 H        -1.365872        -0.335171         2.141215
 H        -2.258863        -1.761382         1.520031
 H         1.243991        -1.968112         0.970775
 H        -1.176833        -1.080537        -1.791196
 H        -1.373598        -3.185710        -0.282643
