19
Iteration:  1843charge 0 multiplicity 1
 C         1.492603         0.605645        -0.231022
 C         0.119573         0.176350         0.132213
 C        -1.001879         0.842049        -0.285994
 C        -2.087025        -0.237528        -0.336119
 C        -1.994755        -0.711623         1.222724
 C        -0.456191        -1.195199         0.489557
 O         0.548681        -1.982783         1.035796
 C        -1.279519        -1.556958        -0.770701
 O        -1.968818        -2.740320        -0.718929
 H         1.579743         0.828951        -1.318369
 H         1.912034         1.597739         0.112959
 H         2.254015        -0.124280        -0.010320
 H        -0.925768         1.843492        -0.728358
 H        -3.080188        -0.021507        -0.797231
 H        -2.005783         0.119210         1.946247
 H        -2.643866        -1.507171         1.538690
 H         0.307268        -2.877816         0.974195
 H        -0.809755        -1.435131        -1.756827
 H        -2.332758        -2.793132        -1.537916
