19
Iteration:  4528charge 0 multiplicity 1
 C         1.607558         0.553844        -0.020703
 C         0.197161         0.173524        -0.321650
 C        -0.686997         0.347120        -1.394154
 C        -1.913017        -0.571130        -0.924982
 C        -1.976048        -0.167890         0.611049
 C        -0.633714        -0.896096         0.600265
 O        -0.093220        -1.544150         1.713023
 C        -1.173136        -1.908040        -0.479879
 O        -1.966333        -2.897761         0.098070
 H         1.894037         0.334968         1.030378
 H         2.262844        -0.060192        -0.610827
 H         1.995395         1.459367        -0.409431
 H        -0.738516         1.281398        -1.982095
 H        -2.842923        -0.308463        -1.510615
 H        -1.990831         0.893790         1.066593
 H        -2.705594        -0.755144         1.134801
 H         0.969304        -1.586822         1.670266
 H        -0.428475        -2.343000        -1.083774
 H        -1.505841        -3.084977         1.027433
