19
Iteration:  3854charge 0 multiplicity 1
 C         1.554456         0.398499        -0.119437
 C         0.076501         0.194633        -0.183909
 C        -0.842652         0.649200        -1.012794
 C        -2.028590        -0.358604        -0.644166
 C        -1.975438        -0.460970         0.964333
 C        -0.475031        -0.984795         0.521623
 O         0.162774        -1.702660         1.558825
 C        -1.208136        -1.676701        -0.612015
 O        -1.906505        -2.870982        -0.393624
 H         1.858528        -0.386670         0.563197
 H         1.965421         0.163803        -1.138536
 H         1.890236         1.438267         0.260516
 H        -0.966022         1.609635        -1.384836
 H        -3.004879        -0.371417        -1.247050
 H        -1.887624         0.373630         1.685306
 H        -2.766338        -1.093983         1.342293
 H         1.082856        -1.528812         1.444689
 H        -0.608223        -1.901128        -1.607245
 H        -1.846255        -3.121238         0.613438
