19
Iteration:  3331
 C         1.618355         0.566934        -0.022474
 C         0.117499         0.259306        -0.097096
 C        -1.065289         0.756892        -0.576060
 C        -2.243795        -0.268791        -0.307683
 C        -1.830539        -0.742721         1.149227
 C        -0.437376        -1.093474         0.490215
 O         0.461286        -1.932169         1.097526
 C        -1.275058        -1.529081        -0.736017
 O        -1.925890        -2.760060        -0.599572
 H         2.128696         0.511134        -1.000375
 H         1.985639         1.589199         0.214551
 H         2.181850        -0.115660         0.667692
 H        -1.462153         1.743061        -0.989317
 H        -3.138693        -0.144295        -0.878388
 H        -2.020859        -0.042948         1.897170
 H        -2.461537        -1.631465         1.416717
 H         0.147601        -2.908472         0.851592
 H        -0.659216        -1.526935        -1.732320
 H        -2.824793        -2.647050        -1.079064
