19
Iteration:  1131charge 0 multiplicity 1
 C         1.547161         0.513262        -0.182364
 C        -0.000409         0.206521         0.051537
 C        -1.030444         0.795209        -0.488681
 C        -2.079639        -0.266611        -0.245233
 C        -1.815810        -0.708468         1.263602
 C        -0.453209        -1.124164         0.551881
 O         0.495632        -1.968400         1.088357
 C        -1.356698        -1.441130        -0.829829
 O        -1.983219        -2.750016        -0.794331
 H         1.759883        -0.106892        -1.078421
 H         1.796793         1.570170        -0.567142
 H         2.168123         0.343266         0.680327
 H        -1.128739         1.689967        -1.076273
 H        -3.058204         0.124141        -0.526052
 H        -1.753265         0.047035         2.056901
 H        -2.302554        -1.639453         1.719436
 H         0.193254        -2.414781         1.936168
 H        -1.119310        -1.231105        -1.876779
 H        -1.446608        -3.444601        -1.293946
