19
Iteration:  1015
 C         1.506347         0.742310         0.139631
 C         0.113668         0.245063         0.047024
 C        -1.056393         0.784884        -0.588071
 C        -2.157421        -0.248911        -0.240533
 C        -1.711360        -0.588119         1.190866
 C        -0.387974        -1.119457         0.442751
 O         0.319143        -2.270263         0.710626
 C        -1.328375        -1.523792        -0.791223
 O        -1.982888        -2.765339        -0.583966
 H         1.724176         0.368637         1.173750
 H         2.139743         0.349238        -0.602023
 H         1.439325         1.838165        -0.030320
 H        -0.968427         1.548960        -1.367110
 H        -3.218817         0.080119        -0.306866
 H        -1.630806         0.225816         1.857061
 H        -2.273620        -1.410003         1.690860
 H         0.770706        -2.272323         1.629701
 H        -0.958667        -1.228491        -1.780575
 H        -1.114441        -3.309255        -0.581340
