19
Iteration:  4315charge 0 multiplicity 1
 C         1.600648         0.495237        -0.058679
 C         0.187894         0.113638        -0.284962
 C        -0.852977         0.510412        -1.127069
 C        -1.948607        -0.510505        -0.796409
 C        -1.921077        -0.313243         0.670380
 C        -0.559876        -0.969232         0.563742
 O         0.018370        -1.525481         1.725464
 C        -1.145694        -1.819893        -0.584287
 O        -1.990199        -2.855035        -0.130373
 H         1.956967         0.524097         0.963592
 H         2.260195        -0.269347        -0.526075
 H         1.809146         1.473466        -0.561796
 H        -0.746747         1.068744        -2.035708
 H        -2.952962        -0.606172        -1.277917
 H        -1.898253         0.667330         1.011836
 H        -2.748099        -0.908348         1.200905
 H         1.038417        -1.565413         1.820017
 H        -0.454367        -2.174552        -1.401262
 H        -2.014575        -3.056519         0.840827
