19
Iteration:  2623
 C         1.465852         0.570534        -0.017191
 C         0.010570         0.298336         0.165025
 C        -1.119315         0.932081        -0.102210
 C        -2.156240        -0.213823         0.021181
 C        -1.708573        -1.102838         1.184913
 C        -0.391319        -1.135132         0.362667
 O         0.583617        -2.180368         0.594706
 C        -1.348501        -1.297680        -0.875042
 O        -1.972142        -2.577392        -0.808908
 H         1.563086         1.572950        -0.288382
 H         1.895457         0.265218         0.934464
 H         1.815437        -0.195066        -0.758632
 H        -1.456378         2.045304        -0.233300
 H        -3.135799         0.094021        -0.336968
 H        -1.536626        -0.593297         2.237263
 H        -2.328143        -1.995380         1.148433
 H         0.412684        -2.627883         1.403622
 H        -0.856714        -1.051045        -1.785002
 H        -2.139229        -2.868409        -1.649283
