19
Iteration:  1768charge 0 multiplicity 1
 C         1.463096         0.630007         0.185434
 C         0.135269         0.144420        -0.148790
 C        -0.990592         0.868150        -0.533137
 C        -2.148381        -0.238486        -0.245102
 C        -1.728176        -0.557354         1.199964
 C        -0.428005        -1.121651         0.422352
 O         0.586912        -2.050409         0.833120
 C        -1.397639        -1.548927        -0.759897
 O        -2.163289        -2.866466        -0.706795
 H         1.601904         1.769268         0.283249
 H         1.761944         0.422524         1.168427
 H         2.275751         0.275596        -0.455541
 H        -1.134349         1.915664        -0.884923
 H        -3.171498        -0.078160        -0.629171
 H        -1.379051         0.132494         2.001991
 H        -2.384358        -1.256003         1.736398
 H         0.065009        -2.427383         1.646878
 H        -0.865789        -1.491626        -1.709561
 H        -1.378294        -3.576006        -0.520493
