19
Iteration:  3357
 C         1.405977         0.585003        -0.078284
 C         0.075929         0.189641        -0.010202
 C        -0.968818         0.835348        -0.572821
 C        -2.071155        -0.211861        -0.289814
 C        -1.795501        -0.617830         1.192760
 C        -0.439845        -1.132224         0.514886
 O         0.452824        -1.963945         1.170786
 C        -1.346791        -1.575058        -0.793213
 O        -1.873201        -2.849571        -0.733539
 H         1.523381         1.128807        -1.029649
 H         1.872819         1.273306         0.655115
 H         2.085213        -0.252001        -0.045825
 H        -1.029186         1.495287        -1.372177
 H        -3.067001         0.003793        -0.781605
 H        -1.869759         0.269850         1.901026
 H        -2.555095        -1.266115         1.587732
 H         0.159118        -2.903751         0.837915
 H        -0.808564        -1.553772        -1.694366
 H        -2.850416        -2.920645        -0.479364
