19
Iteration:   799
 C         1.483341         0.704495         0.117943
 C         0.076640         0.185053        -0.112142
 C        -1.071004         0.746164        -0.403120
 C        -2.103761        -0.319563        -0.147340
 C        -1.588743        -0.855605         1.246139
 C        -0.374897        -1.147810         0.390837
 O         0.676679        -2.021753         0.821595
 C        -1.411705        -1.461460        -0.824284
 O        -2.258562        -2.618872        -0.689724
 H         2.190761        -0.092454        -0.009179
 H         1.731330         1.495637        -0.772702
 H         1.538291         1.051525         1.173728
 H        -1.145162         1.814613        -0.648675
 H        -3.147686        -0.168735        -0.372039
 H        -1.543443        -0.095833         2.064608
 H        -2.079243        -1.843409         1.614720
 H         0.243415        -2.823794         1.068601
 H        -0.962504        -1.282147        -1.815050
 H        -2.589923        -2.882683        -1.508968
