19
Iteration:  2009charge 0 multiplicity 1
 C         1.532129         0.728526         0.133418
 C         0.191068         0.193233        -0.071414
 C        -1.006800         0.797024        -0.461787
 C        -2.164820        -0.230809        -0.122634
 C        -1.664454        -0.715932         1.312682
 C        -0.453956        -1.188903         0.440182
 O         0.597905        -2.092447         0.754175
 C        -1.523805        -1.510963        -0.824991
 O        -2.152595        -2.726806        -0.794512
 H         1.519663         1.167083         1.207044
 H         2.271798        -0.012207         0.063853
 H         1.665041         1.615638        -0.495087
 H        -1.407446         1.842614        -0.677519
 H        -3.169002         0.023380        -0.472464
 H        -1.452070         0.032098         2.022464
 H        -2.210455        -1.590688         1.597021
 H         0.459881        -2.890556         1.274147
 H        -1.142011        -1.297473        -1.839011
 H        -1.533527        -3.514029        -0.789421
