19
Iteration:  2831charge 0 multiplicity 1
 C         1.446228         0.712400        -0.013454
 C         0.097347         0.135307         0.043718
 C        -1.004539         0.854148        -0.269864
 C        -2.192011        -0.132045         0.017436
 C        -1.741171        -0.911539         1.254862
 C        -0.397827        -1.194063         0.458977
 O         0.476522        -2.196837         0.866900
 C        -1.442783        -1.422994        -0.830410
 O        -1.940546        -2.677509        -1.087892
 H         1.913506         0.662535        -1.019015
 H         1.475278         1.861903         0.150481
 H         2.234360         0.251518         0.715066
 H        -1.188675         1.868326        -0.541923
 H        -3.259660         0.206516        -0.058128
 H        -1.602390        -0.399464         2.220373
 H        -2.365797        -1.859851         1.350127
 H         1.398143        -1.893888         0.965100
 H        -0.975599        -1.119932        -1.823152
 H        -2.349133        -2.958350        -0.248559
