19
Iteration:  4103
 C         1.640419         0.429862        -0.254670
 C         0.193891         0.065653        -0.182742
 C        -0.749039         0.433045        -1.090943
 C        -1.994350        -0.358815        -0.748096
 C        -2.125023        -0.455693         0.894457
 C        -0.624392        -0.916226         0.652450
 O         0.067442        -1.517704         1.729716
 C        -1.154045        -1.772775        -0.645807
 O        -1.874343        -2.819822        -0.188175
 H         2.306040        -0.329310         0.156952
 H         1.841849         0.593244        -1.328543
 H         1.691872         1.303999         0.345771
 H        -0.559417         1.378642        -1.655349
 H        -2.792372        -0.013416        -1.423193
 H        -2.174586         0.568186         1.449848
 H        -2.682599        -1.291431         1.274731
 H         0.942593        -1.550442         1.545639
 H        -0.388055        -2.046626        -1.434166
 H        -2.493866        -3.172425        -0.930163
