19
Iteration:   528
 C         1.505582         0.623183         0.201085
 C         0.116783         0.196680         0.046548
 C        -1.099027         0.886120        -0.374217
 C        -2.180412        -0.161709        -0.078721
 C        -1.595469        -0.731313         1.279810
 C        -0.449517        -1.135336         0.322739
 O         0.400134        -2.147134         0.562946
 C        -1.513164        -1.411418        -0.796318
 O        -1.749545        -2.826253        -0.693212
 H         1.482623         1.311364        -0.678670
 H         1.532768         1.184605         1.138039
 H         2.029724        -0.315100         0.233041
 H        -1.239696         1.944159        -0.603424
 H        -3.216696         0.139144        -0.050676
 H        -1.406399         0.062835         1.947000
 H        -2.223145        -1.577046         1.579673
 H        -0.109855        -3.012762         0.331815
 H        -0.986398        -1.157252        -1.764436
 H        -2.634937        -3.069561        -1.143106
