19
Iteration:  4629charge 0 multiplicity 1
 C         1.546624         0.468130        -0.189016
 C         0.202567        -0.016401        -0.282618
 C        -0.624114         0.126857        -1.367990
 C        -1.858870        -0.531426        -0.926732
 C        -1.965331        -0.214598         0.704241
 C        -0.658557        -0.854172         0.718627
 O         0.004776        -1.176201         1.964450
 C        -1.160548        -1.892638        -0.407814
 O        -2.106665        -2.875133        -0.168809
 H         2.081602         0.559613        -1.154390
 H         1.621633         1.457128         0.299918
 H         2.179631        -0.218529         0.380930
 H        -0.421310         0.709054        -2.291001
 H        -2.735840        -0.511346        -1.623205
 H        -2.038232         0.839916         0.889893
 H        -2.704850        -1.052821         1.130755
 H         0.922168        -0.982319         1.850097
 H        -0.371451        -2.195382        -1.066448
 H        -1.666470        -3.664592         0.031446
