19
Iteration:  4014
 C         1.510028         0.576510         0.047008
 C         0.164593         0.152443        -0.247799
 C        -0.802139         0.524763        -1.136161
 C        -1.929528        -0.402635        -0.731314
 C        -1.849020        -0.307202         0.867263
 C        -0.583510        -0.958553         0.506217
 O         0.195724        -1.638687         1.523457
 C        -1.178187        -1.858228        -0.601182
 O        -2.136810        -2.878647        -0.136998
 H         1.494105         1.405912         0.791780
 H         2.098470        -0.254719         0.476013
 H         2.047011         0.923468        -0.785233
 H        -0.743999         1.182608        -1.949167
 H        -2.883513        -0.314457        -1.344625
 H        -1.785522         0.665324         1.344025
 H        -2.670550        -0.980649         1.335112
 H         0.751475        -2.139497         1.008167
 H        -0.657439        -2.133791        -1.509322
 H        -1.553790        -3.658851         0.150530
