19
Iteration:  2603charge 0 multiplicity 1
 C         1.543817         0.563172        -0.026225
 C         0.036217         0.239754         0.106699
 C        -1.110735         0.904690        -0.036946
 C        -2.197477        -0.200540         0.076071
 C        -1.623985        -0.999896         1.304849
 C        -0.496449        -1.201465         0.398127
 O         0.632337        -2.034353         0.683502
 C        -1.446862        -1.305897        -0.841672
 O        -1.987877        -2.686091        -1.037656
 H         1.751253         1.390250        -0.646975
 H         1.932313         0.626035         0.998887
 H         1.982804        -0.318658        -0.501185
 H        -1.252248         1.860912        -0.628144
 H        -3.291141        -0.051863        -0.050981
 H        -1.636745        -0.394677         2.191712
 H        -2.145672        -1.960114         1.350539
 H         0.209061        -2.863798         1.162164
 H        -1.163802        -0.929452        -1.799637
 H        -2.104301        -2.688977        -2.061110
