19
Iteration:  3759
 C         1.592559         0.649623         0.055988
 C         0.165022         0.154485        -0.165638
 C        -0.922912         0.580250        -1.013280
 C        -2.016267        -0.391544        -0.659214
 C        -1.863042        -0.528288         0.963179
 C        -0.491131        -0.982683         0.569383
 O         0.297585        -1.772771         1.405513
 C        -1.272462        -1.690381        -0.689116
 O        -2.004845        -2.845659        -0.322365
 H         1.607810         1.489818        -0.640479
 H         1.833591         0.827757         1.117181
 H         2.223694        -0.172772        -0.343127
 H        -0.956825         1.582773        -1.374844
 H        -2.942029        -0.277467        -1.262639
 H        -1.866474         0.506261         1.578020
 H        -2.549638        -1.142943         1.520402
 H         0.334132        -2.772177         1.042414
 H        -0.761449        -1.913273        -1.563570
 H        -2.864303        -2.594852         0.001228
