19
Iteration:  2288
 C         1.500604         0.700163        -0.055111
 C         0.096683         0.304927         0.235431
 C        -1.026638         0.908556        -0.157533
 C        -2.175282        -0.240855        -0.121304
 C        -1.759866        -0.948261         1.257286
 C        -0.450660        -1.171139         0.385599
 O         0.620552        -2.139007         0.678200
 C        -1.324710        -1.443413        -0.856674
 O        -2.075143        -2.720313        -0.842272
 H         2.194255         0.614705         0.774139
 H         1.898906        -0.067905        -0.822102
 H         1.611810         1.696547        -0.514513
 H        -1.336268         1.874978        -0.411889
 H        -3.155460         0.097748        -0.398762
 H        -1.617092        -0.256174         2.128539
 H        -2.351032        -1.888172         1.452456
 H         0.471497        -2.676633         1.480522
 H        -0.896885        -1.229086        -1.857130
 H        -2.820127        -2.604601        -1.339305
