19
Iteration:  3627charge 0 multiplicity 1
 C         1.546660         0.566828        -0.147443
 C         0.093129         0.202003        -0.174686
 C        -0.958747         0.691161        -0.834939
 C        -2.074138        -0.262910        -0.505316
 C        -1.973535        -0.510666         1.056427
 C        -0.445999        -1.058126         0.607393
 O         0.376123        -1.903213         1.447727
 C        -1.190420        -1.595145        -0.669451
 O        -2.015173        -2.812070        -0.523308
 H         1.861155         0.544418         0.922855
 H         2.078988        -0.315911        -0.530459
 H         1.808960         1.519300        -0.715680
 H        -0.902134         1.494300        -1.620341
 H        -3.161400        -0.123964        -0.893490
 H        -1.939230         0.458408         1.683874
 H        -2.651914        -1.305371         1.416860
 H         0.184452        -2.860692         1.158978
 H        -0.541236        -1.665159        -1.522297
 H        -1.440412        -3.554721        -0.531629
