19
Iteration:  4232charge 0 multiplicity 1
 C         1.506337         0.647447        -0.031705
 C         0.181174         0.153108        -0.311731
 C        -0.815481         0.483170        -1.208086
 C        -1.871868        -0.492319        -0.815823
 C        -1.893075        -0.264499         0.691247
 C        -0.512905        -1.057601         0.581688
 O         0.185659        -1.738109         1.698824
 C        -1.204859        -1.870536        -0.504323
 O        -2.088199        -2.774688        -0.096407
 H         1.613843         1.551687        -0.769644
 H         1.705358         0.779172         1.068716
 H         2.259208        -0.091394        -0.328720
 H        -1.058655         1.460254        -1.713102
 H        -2.838259        -0.605596        -1.335177
 H        -1.752932         0.819956         1.027650
 H        -2.714012        -0.790669         1.186601
 H         0.142127        -1.074072         2.530837
 H        -0.590047        -2.267701        -1.378753
 H        -1.962491        -3.629132        -0.591326
