19
Iteration:  2638charge 0 multiplicity 1
 C         1.485686         0.662947         0.026094
 C         0.026822         0.269219         0.200136
 C        -1.142908         0.886810        -0.059678
 C        -2.154139        -0.219877        -0.160674
 C        -1.759344        -1.021577         1.209796
 C        -0.379567        -1.268069         0.352537
 O         0.566917        -2.232835         0.517426
 C        -1.339840        -1.287796        -0.861500
 O        -1.976827        -2.532242        -0.715869
 H         1.729562         1.765962         0.048272
 H         2.285550         0.267148         0.680930
 H         1.852310         0.281943        -0.900980
 H        -1.247003         1.876838        -0.275771
 H        -3.270577        -0.185200        -0.232200
 H        -1.711074        -0.470678         2.067959
 H        -2.237346        -1.987464         1.450677
 H         0.558804        -2.496750         1.533416
 H        -1.051223        -0.986940        -1.904541
 H        -2.147933        -2.946980        -1.656851
