19
Iteration:  2067charge 0 multiplicity 1
 C         1.499164         0.541187        -0.103816
 C         0.097131         0.279116         0.037071
 C        -1.067014         0.879519        -0.189940
 C        -2.198872        -0.214479        -0.154581
 C        -1.796618        -0.871092         1.162568
 C        -0.394096        -1.151178         0.358585
 O         0.534041        -2.044246         0.892917
 C        -1.341357        -1.444916        -0.858420
 O        -1.972523        -2.669615        -0.698162
 H         1.870405         1.569317        -0.034269
 H         2.267228         0.009234         0.482126
 H         1.805457         0.242897        -1.142340
 H        -1.357159         1.869010        -0.241582
 H        -3.186443        -0.093067        -0.657276
 H        -1.680965        -0.267434         2.116300
 H        -2.348440        -1.762792         1.516580
 H         0.051767        -2.850339         1.290740
 H        -1.146278        -1.141937        -1.881396
 H        -1.795352        -3.228255        -1.454608
