19
Iteration:  1594charge 0 multiplicity 1
 C         1.522395         0.524957        -0.235616
 C         0.092204         0.241840         0.006627
 C        -1.018215         0.845759        -0.475245
 C        -2.067581        -0.218456        -0.349512
 C        -1.875717        -0.751953         1.097311
 C        -0.475011        -1.114366         0.527984
 O         0.410964        -2.040297         1.154024
 C        -1.262805        -1.457215        -0.708295
 O        -1.984941        -2.746362        -0.672307
 H         2.109770        -0.424474        -0.463038
 H         1.688077         1.327616        -0.864513
 H         2.064380         0.666513         0.732556
 H        -1.025297         1.702890        -1.057236
 H        -3.091169        -0.062228        -0.705142
 H        -2.248427         0.044200         1.870474
 H        -2.317818        -1.720518         1.311887
 H         0.283928        -1.873811         2.060018
 H        -0.807055        -1.371928        -1.746292
 H        -1.418785        -3.410586        -1.073523
