19
Iteration:  4539
 C         1.659567         0.495599        -0.038484
 C         0.177106         0.210462        -0.333908
 C        -0.704108         0.361530        -1.338204
 C        -1.871708        -0.572465        -0.900823
 C        -2.070912        -0.216711         0.622751
 C        -0.572568        -0.847364         0.573176
 O        -0.095870        -1.571072         1.689554
 C        -1.130625        -1.837829        -0.476625
 O        -1.984736        -2.860182         0.136773
 H         1.953872         0.093659         0.956776
 H         2.228074        -0.017510        -0.777163
 H         1.851876         1.537575         0.076704
 H        -0.725663         0.910175        -2.297386
 H        -2.751445        -0.840825        -1.547250
 H        -2.124276         0.905122         0.711169
 H        -2.808056        -0.765555         1.185173
 H         0.884946        -1.454646         1.684587
 H        -0.517290        -2.218270        -1.250183
 H        -1.522342        -3.225460         0.896461
