19
Iteration:  4953
 C         1.640449         0.607013        -0.040271
 C         0.275247        -0.086223        -0.449174
 C        -0.510135         0.088810        -1.470610
 C        -1.816983        -0.677281        -1.021200
 C        -2.002681        -0.074979         0.428201
 C        -0.663557        -0.902826         0.656849
 O        -0.165080        -1.140012         1.890580
 C        -1.196410        -1.994926        -0.353975
 O        -2.024242        -2.973260         0.169598
 H         1.579256         1.561341         0.518700
 H         2.125332         0.013638         0.701086
 H         2.372470         0.716471        -0.836005
 H        -0.456040         0.661535        -2.479331
 H        -2.707406        -0.719651        -1.678690
 H        -2.051026         1.042298         0.678666
 H        -2.923327        -0.461138         0.967910
 H         0.147139        -0.263640         2.191360
 H        -0.485753        -2.449525        -1.021845
 H        -2.255337        -2.674056         1.151718
