19
Iteration:  4035
 C         1.564555         0.592066        -0.013936
 C         0.252074        -0.013852        -0.303043
 C        -0.773485         0.437906        -1.148381
 C        -2.046093        -0.304376        -0.725300
 C        -1.963461        -0.317137         0.821214
 C        -0.487637        -1.012399         0.560413
 O         0.211257        -1.601945         1.671033
 C        -1.353994        -1.745602        -0.583984
 O        -2.023507        -2.869707        -0.184783
 H         1.455347         1.037949         1.022208
 H         2.446583        -0.089611        -0.053059
 H         1.700238         1.417527        -0.666981
 H        -0.693366         1.097286        -1.957309
 H        -3.074188        -0.062017        -1.142444
 H        -2.038128         0.658205         1.270079
 H        -2.799270        -1.045580         1.256663
 H         0.875621        -2.319106         1.312235
 H        -0.717879        -2.053616        -1.503256
 H        -1.432181        -3.592479        -0.448435
