19
Iteration:   662charge 0 multiplicity 1
 C         1.429914         0.523196        -0.154893
 C         0.020089         0.257213         0.068124
 C        -1.113895         0.841306        -0.253369
 C        -2.184676        -0.189909        -0.003151
 C        -1.669085        -0.799804         1.321002
 C        -0.397925        -1.116150         0.491729
 O         0.511953        -2.228144         0.807978
 C        -1.442222        -1.404836        -0.717918
 O        -1.955615        -2.649806        -1.045670
 H         1.888020         1.243047         0.593477
 H         2.108043        -0.284614        -0.089145
 H         1.747739         1.080069        -1.033198
 H        -1.229457         1.808626        -0.698298
 H        -3.257498        -0.005010        -0.241414
 H        -1.587248        -0.060028         2.109179
 H        -2.204395        -1.642760         1.579986
 H         1.235860        -2.018850         1.498330
 H        -1.083914        -0.953341        -1.695965
 H        -1.194130        -3.322374        -1.123007
