19
Iteration:  3385
 C         1.568476         0.678990        -0.104072
 C         0.134247         0.201303        -0.107388
 C        -0.981764         0.752700        -0.627553
 C        -2.105482        -0.308613        -0.301701
 C        -1.836259        -0.625207         1.215036
 C        -0.489038        -1.098004         0.542044
 O         0.388142        -1.969623         1.180020
 C        -1.328631        -1.578433        -0.741215
 O        -1.923061        -2.799234        -0.788146
 H         1.615566         1.777847        -0.307319
 H         2.066601         0.363907         0.841950
 H         2.116702         0.097358        -0.936175
 H        -1.186204         1.751773        -1.038957
 H        -3.113475        -0.145380        -0.638288
 H        -1.852727         0.203325         1.880336
 H        -2.575317        -1.375474         1.641963
 H        -0.220203        -2.760325         1.487883
 H        -0.697218        -1.512994        -1.707757
 H        -2.087547        -3.234983         0.125932
