19
Iteration:   416
 C         1.484267         0.596998        -0.119283
 C         0.023582         0.298862         0.133755
 C        -1.098836         0.793830        -0.234793
 C        -2.176558        -0.249093         0.079170
 C        -1.585588        -0.936200         1.357638
 C        -0.371871        -1.191760         0.451663
 O         0.542867        -2.111110         0.763847
 C        -1.390730        -1.360476        -0.791352
 O        -2.113202        -2.559600        -1.081703
 H         2.270318        -0.115573        -0.097028
 H         1.731970         1.023098        -1.149968
 H         1.890886         1.340617         0.589813
 H        -1.309873         1.612393        -0.930463
 H        -3.278238        -0.241337        -0.014863
 H        -1.323541        -0.299513         2.260777
 H        -2.115554        -1.928990         1.563552
 H         0.318613        -2.692678         1.493642
 H        -1.114790        -0.922550        -1.787506
 H        -1.520544        -3.327370        -1.248333
