19
Iteration:  3110
 C         1.479213         0.679206        -0.050407
 C         0.061566         0.250523         0.056343
 C        -1.032601         0.861048        -0.487067
 C        -2.157272        -0.164115        -0.274293
 C        -1.806857        -0.829679         1.220519
 C        -0.437348        -1.224997         0.495284
 O         0.470386        -2.191743         0.930129
 C        -1.333594        -1.407193        -0.821864
 O        -1.845229        -2.705484        -0.621295
 H         1.570809         1.162413        -1.094032
 H         1.597519         1.428032         0.765559
 H         2.284485        -0.067471         0.097734
 H        -0.984245         1.792020        -1.122531
 H        -3.202266         0.073561        -0.638957
 H        -1.639187        -0.131872         2.104465
 H        -2.524858        -1.578397         1.394668
 H        -0.028287        -3.001320         1.274210
 H        -0.930713        -1.141648        -1.797158
 H        -2.372542        -3.025368        -1.454570
