19
Iteration:  2197
 C         1.496397         0.640655         0.183144
 C         0.091787         0.248944         0.080700
 C        -1.098169         0.816883        -0.358113
 C        -2.172265        -0.256780        -0.171542
 C        -1.704020        -0.762921         1.223155
 C        -0.463098        -1.200287         0.381150
 O         0.571748        -2.108886         0.564729
 C        -1.306467        -1.417310        -0.832541
 O        -2.045844        -2.693893        -0.592176
 H         2.061667        -0.104541        -0.408980
 H         1.693410         1.652136        -0.205128
 H         1.896814         0.634499         1.227190
 H        -1.248873         1.931786        -0.456114
 H        -3.278071        -0.070935        -0.337272
 H        -1.510506        -0.062149         2.023357
 H        -2.145542        -1.676389         1.520621
 H         0.115811        -2.903761         0.398991
 H        -0.766819        -1.234879        -1.796040
 H        -2.318435        -3.015739        -1.477723
