19
Iteration:  3201
 C         1.622863         0.684761         0.001585
 C         0.088547         0.206582         0.020632
 C        -1.014673         0.772147        -0.485555
 C        -2.136364        -0.275782        -0.262135
 C        -1.926034        -0.798274         1.186188
 C        -0.437459        -1.146533         0.472353
 O         0.587083        -1.941529         0.941127
 C        -1.323439        -1.519556        -0.807257
 O        -2.082680        -2.735058        -0.633491
 H         1.937132         1.306769         0.817774
 H         2.250845        -0.216172        -0.013259
 H         1.963401         1.209380        -0.936167
 H        -1.271678         1.776639        -0.893433
 H        -3.131894        -0.019068        -0.582811
 H        -1.924137        -0.105468         1.986538
 H        -2.570927        -1.726218         1.257286
 H         0.184615        -2.679030         1.390452
 H        -0.925180        -1.558637        -1.773283
 H        -2.020282        -3.103434        -1.553311
