19
Iteration:  3317charge 0 multiplicity 1
 C         1.578505         0.577387         0.002457
 C         0.088445         0.274765        -0.084456
 C        -1.085263         0.810911        -0.515350
 C        -2.065976        -0.318051        -0.326404
 C        -1.909739        -0.745514         1.118313
 C        -0.409038        -1.090031         0.415672
 O         0.524230        -1.966244         1.082501
 C        -1.340578        -1.503609        -0.830711
 O        -1.967047        -2.746724        -0.521663
 H         2.004171        -0.047326        -0.804550
 H         1.777644         1.631454        -0.012365
 H         1.884820         0.128893         0.956706
 H        -1.125774         1.723235        -1.152602
 H        -3.102148        -0.100268        -0.564853
 H        -1.859639         0.042946         1.931989
 H        -2.354681        -1.677871         1.447194
 H         0.060213        -2.777069         1.180801
 H        -0.945978        -1.406768        -1.888829
 H        -2.480941        -3.038218        -1.286430
