19
Iteration:    36charge 0 multiplicity 1
 C         1.467299         0.796313         0.233637
 C         0.134416         0.291609         0.202098
 C        -1.106217         0.963277         0.044001
 C        -2.071183        -0.213462        -0.054947
 C        -1.707967        -1.025310         1.173098
 C        -0.354659        -1.229558         0.194985
 O         0.524137        -2.311303         0.273520
 C        -1.474800        -1.351813        -0.912905
 O        -2.068058        -2.620644        -0.640130
 H         2.099425        -0.071093         0.717136
 H         1.866054         0.969690        -0.779388
 H         1.624238         1.681714         0.753651
 H        -1.232723         1.927425        -0.408160
 H        -3.088494         0.155940        -0.217225
 H        -1.477765        -0.467596         2.081784
 H        -2.292402        -1.877084         1.347566
 H         0.501892        -2.657263         1.168604
 H        -1.207947        -1.166635        -1.947789
 H        -1.693561        -3.223634        -1.300420
