19
Iteration:  4581
 C         1.581842         0.463144        -0.127509
 C         0.197914         0.053657        -0.337323
 C        -0.630594         0.275083        -1.307410
 C        -1.873060        -0.483363        -0.888792
 C        -2.067500        -0.173668         0.658666
 C        -0.587942        -0.913104         0.622566
 O        -0.026632        -1.319400         1.836281
 C        -1.216005        -1.868095        -0.468037
 O        -2.045181        -2.973042        -0.041360
 H         2.212481        -0.467261        -0.165886
 H         1.979105         1.169535        -0.862969
 H         1.845022         0.966397         0.831143
 H        -0.496858         1.031671        -2.079385
 H        -2.628141        -0.581270        -1.684198
 H        -1.969873         0.877259         1.071779
 H        -2.769977        -0.825680         1.036053
 H         0.898575        -0.871703         2.034468
 H        -0.397201        -2.234521        -1.138096
 H        -1.364750        -3.488870         0.566838
