19
Iteration:  4406
 C         1.623341         0.416129        -0.092847
 C         0.219677         0.132389        -0.341241
 C        -0.771369         0.415035        -1.195595
 C        -2.020564        -0.433501        -0.837579
 C        -1.993886        -0.336537         0.763959
 C        -0.550560        -0.816906         0.587660
 O        -0.022139        -1.385819         1.785823
 C        -1.179812        -1.822163        -0.566029
 O        -1.878845        -3.031863        -0.070545
 H         2.319873         0.122397        -0.932124
 H         1.824356         1.470273        -0.035086
 H         1.940343        -0.037851         0.825862
 H        -0.682067         0.656063        -2.286451
 H        -2.870046        -0.179944        -1.443398
 H        -1.988634         0.715591         1.322863
 H        -2.640931        -0.974873         1.294852
 H         0.755244        -1.863108         1.482927
 H        -0.395344        -2.055480        -1.248722
 H        -2.738620        -2.682173        -0.086795
