19
Iteration:  2997
 C         1.529263         0.729438         0.083274
 C         0.076822         0.278636         0.146936
 C        -1.074721         0.825939        -0.362964
 C        -2.140683        -0.241716        -0.216444
 C        -1.740108        -0.800826         1.162171
 C        -0.385624        -1.245404         0.403690
 O         0.552058        -2.166819         0.827371
 C        -1.349850        -1.481050        -0.892303
 O        -2.120252        -2.677329        -0.738045
 H         2.132925         0.014827         0.681299
 H         1.843130         0.671283        -1.019666
 H         1.568119         1.816978         0.337936
 H        -1.287309         1.796571        -0.675123
 H        -3.118025         0.020678        -0.516613
 H        -1.624320        -0.015219         1.840447
 H        -2.428685        -1.606197         1.525338
 H         0.728611        -2.071889         1.731927
 H        -1.003597        -1.291459        -1.961210
 H        -1.662976        -3.479235        -1.145133
