19
Iteration:  1238
 C         1.491160         0.689259         0.159566
 C         0.111930         0.132535        -0.178460
 C        -1.027602         0.711663        -0.598593
 C        -2.124319        -0.232943        -0.294266
 C        -1.685593        -0.606736         1.173208
 C        -0.360545        -1.135752         0.355611
 O         0.538237        -1.948068         1.121496
 C        -1.410819        -1.566415        -0.828823
 O        -2.150040        -2.792308        -0.698668
 H         2.032589         0.896399        -0.716090
 H         1.334141         1.563361         0.904622
 H         1.980800        -0.157758         0.589156
 H        -1.127681         1.689794        -0.952926
 H        -3.195774        -0.118840        -0.475251
 H        -1.338498         0.046343         1.966405
 H        -2.252213        -1.395573         1.624903
 H         0.598194        -2.719490         0.495412
 H        -0.933653        -1.602740        -1.824370
 H        -2.200552        -3.117651         0.281922
