19
Iteration:  3585
 C         1.599736         0.555048         0.022145
 C         0.147414         0.224644        -0.172390
 C        -0.938868         0.741674        -0.736347
 C        -2.102774        -0.231649        -0.423565
 C        -1.892709        -0.552488         1.022941
 C        -0.520930        -1.083621         0.486635
 O         0.439672        -1.797401         1.312164
 C        -1.321493        -1.688263        -0.754384
 O        -2.020441        -2.905860        -0.504068
 H         1.642999         1.608452         0.300219
 H         1.913761        -0.172002         0.817473
 H         2.060636         0.283432        -0.949057
 H        -1.025728         1.460484        -1.571676
 H        -3.009191        -0.064259        -1.048697
 H        -1.881904         0.367297         1.700132
 H        -2.437232        -1.380910         1.405524
 H         0.035817        -1.954650         2.114349
 H        -0.803493        -1.771834        -1.779716
 H        -1.806896        -3.568337        -1.120548
