19
Iteration:  3780charge 0 multiplicity 1
 C         1.538594         0.705873        -0.082226
 C         0.174461         0.167857        -0.142750
 C        -0.888890         0.622206        -0.931520
 C        -2.014222        -0.326426        -0.572566
 C        -1.845115        -0.444052         0.907414
 C        -0.460567        -1.111517         0.501592
 O         0.185428        -1.832610         1.506372
 C        -1.189084        -1.739827        -0.694999
 O        -1.999396        -2.850376        -0.362260
 H         1.486685         1.761593         0.077075
 H         1.781538         0.228812         0.832054
 H         2.214314         0.358049        -0.896480
 H        -0.879181         1.148918        -1.858869
 H        -3.024750        -0.166098        -1.035317
 H        -2.071317         0.551944         1.464329
 H        -2.559539        -1.113791         1.356625
 H         0.472551        -2.668887         1.226308
 H        -0.746590        -1.950958        -1.621657
 H        -2.391944        -2.576600         0.472703
