19
Iteration:    42
 C         1.468237         0.778275         0.248819
 C         0.070717         0.230510         0.203655
 C        -1.068557         0.937486        -0.028884
 C        -2.132432        -0.162772        -0.028256
 C        -1.656419        -0.997243         1.207648
 C        -0.364861        -1.212310         0.204038
 O         0.564329        -2.323811         0.280478
 C        -1.448882        -1.309101        -0.927706
 O        -2.078980        -2.626507        -0.648577
 H         1.990380        -0.027801         0.648215
 H         1.743507         1.111733        -0.771072
 H         1.439033         1.719725         0.933898
 H        -1.089098         1.945026        -0.479869
 H        -3.188294         0.094124        -0.164007
 H        -1.296338        -0.593647         2.172502
 H        -2.350708        -1.898865         1.250716
 H         0.533691        -2.711620         1.223094
 H        -1.218970        -1.198596        -2.017800
 H        -1.701655        -3.279613        -1.348507
