19
Iteration:   830charge 0 multiplicity 1
 C         1.520334         0.640266        -0.014903
 C         0.089568         0.242934         0.074267
 C        -1.038566         0.932397        -0.281273
 C        -2.138794        -0.159078        -0.180716
 C        -1.765810        -0.811472         1.167571
 C        -0.533150        -1.183215         0.369049
 O         0.568309        -2.082403         0.772376
 C        -1.377043        -1.474429        -0.844359
 O        -1.958948        -2.814687        -0.558456
 H         2.126760         0.257907        -0.824098
 H         1.793107         1.727140        -0.230583
 H         2.119733         0.401865         0.902200
 H        -0.965893         1.850163        -0.880419
 H        -3.137661         0.078800        -0.483009
 H        -1.668953        -0.091080         1.902252
 H        -2.441264        -1.652413         1.364220
 H         0.294395        -2.945152         0.311084
 H        -0.988674        -1.506046        -1.870619
 H        -2.912674        -2.882829        -0.955802
