19
Iteration:  1677charge 0 multiplicity 1
 C         1.497485         0.680026         0.022971
 C         0.128392         0.216848        -0.015997
 C        -0.977683         0.709113        -0.600499
 C        -2.063222        -0.278929        -0.260508
 C        -1.747319        -0.587637         1.247750
 C        -0.493403        -1.112131         0.541711
 O         0.398819        -2.110657         1.053727
 C        -1.407998        -1.574731        -0.764706
 O        -2.073043        -2.720522        -0.830610
 H         1.971311         0.600395         0.966260
 H         2.138504         0.028391        -0.678838
 H         1.475193         1.676293        -0.395675
 H        -1.102540         1.483610        -1.294026
 H        -3.097105        -0.014345        -0.494722
 H        -1.505947         0.185964         1.932690
 H        -2.299221        -1.415150         1.666196
 H         1.218723        -1.808957         1.525429
 H        -0.814276        -1.432708        -1.647914
 H        -1.405791        -3.504561        -1.073176
