19
Iteration:  2118
 C         1.448818         0.619416        -0.120927
 C         0.064002         0.183901         0.029321
 C        -1.142472         0.762336        -0.392818
 C        -2.144199        -0.249569        -0.085069
 C        -1.708611        -0.794019         1.290136
 C        -0.406829        -1.206394         0.547583
 O         0.616969        -2.127224         0.973246
 C        -1.330492        -1.418254        -0.748167
 O        -2.007203        -2.592448        -0.957605
 H         1.694210         1.297195        -1.013280
 H         1.804534         1.167397         0.712776
 H         2.202276        -0.148648        -0.208754
 H        -1.273693         1.749782        -0.832429
 H        -3.236093        -0.109282        -0.211338
 H        -1.735232        -0.018123         2.009016
 H        -2.402474        -1.505110         1.684635
 H         0.252977        -2.977480         0.785162
 H        -0.793658        -1.013439        -1.642191
 H        -2.582554        -2.564659        -1.646739
