19
Iteration:  1888
 C         1.557735         0.485384        -0.100351
 C         0.118989         0.308035        -0.094012
 C        -1.130478         0.863088        -0.489776
 C        -2.168234        -0.226187        -0.079909
 C        -1.750155        -0.798578         1.260371
 C        -0.483188        -1.035269         0.421575
 O         0.320398        -2.090594         0.987746
 C        -1.311771        -1.364433        -0.757715
 O        -1.754841        -2.792320        -0.714069
 H         2.077190        -0.196677        -0.867737
 H         1.858167         1.476513        -0.386735
 H         1.842505         0.207981         0.931203
 H        -1.434217         1.769418        -1.028043
 H        -3.110791        -0.017060        -0.570314
 H        -1.644777        -0.227588         2.172240
 H        -2.170638        -1.762639         1.533184
 H        -0.240286        -2.859505         1.028706
 H        -0.794663        -0.969489        -1.618737
 H        -2.378201        -2.939539        -1.364512
