19
Iteration:  2660charge 0 multiplicity 1
 C         1.451412         0.806312         0.097501
 C         0.113615         0.281949         0.164630
 C        -1.017307         0.856356        -0.104424
 C        -2.101191        -0.185471        -0.020489
 C        -1.701934        -0.907708         1.223715
 C        -0.440459        -1.238619         0.383866
 O         0.513591        -2.258678         0.479368
 C        -1.364047        -1.402567        -0.839480
 O        -2.117539        -2.720340        -0.833667
 H         1.533538         1.805224         0.600045
 H         2.225261         0.247678         0.647374
 H         1.919915         0.904668        -0.847896
 H        -1.207346         1.816652        -0.417002
 H        -3.135196         0.091911        -0.367903
 H        -1.651858        -0.287280         2.039372
 H        -2.233647        -1.830540         1.497072
 H         0.879847        -2.217935         1.318001
 H        -0.892993        -1.249067        -1.834105
 H        -2.019908        -3.014776        -1.716731
