19
Iteration:  4115charge 0 multiplicity 1
 C         1.619933         0.386264        -0.197765
 C         0.173268         0.026443        -0.191608
 C        -0.762650         0.485860        -1.051456
 C        -2.010252        -0.299229        -0.692679
 C        -2.052443        -0.434265         0.783079
 C        -0.610597        -0.964399         0.621219
 O         0.041962        -1.486914         1.692001
 C        -1.193532        -1.688831        -0.612372
 O        -1.826106        -2.878714        -0.156762
 H         2.332255        -0.400883        -0.041672
 H         1.937594         0.875607        -1.124820
 H         1.904238         1.135076         0.540224
 H        -0.670267         0.820577        -2.146606
 H        -2.912410        -0.330927        -1.283061
 H        -2.311820         0.447376         1.504400
 H        -2.687920        -1.231082         1.052490
 H         1.030789        -1.483656         1.449599
 H        -0.538199        -1.832337        -1.476691
 H        -2.471229        -3.147469        -0.774674
