19
Iteration:  1578charge 0 multiplicity 1
 C         1.572886         0.531235        -0.107506
 C         0.118636         0.249012        -0.019710
 C        -1.026720         0.729788        -0.669919
 C        -2.187514        -0.259339        -0.271334
 C        -1.872190        -0.670812         1.221521
 C        -0.466303        -1.027285         0.607935
 O         0.360779        -2.084060         1.076433
 C        -1.277773        -1.491894        -0.767981
 O        -1.918132        -2.685351        -0.695487
 H         1.979405        -0.132703        -0.857956
 H         1.738659         1.583476        -0.622973
 H         2.121189         0.510219         0.838953
 H        -1.098339         1.606613        -1.423785
 H        -3.195601        -0.154101        -0.704157
 H        -1.766978         0.001063         2.014632
 H        -2.545018        -1.515634         1.529836
 H         0.330926        -2.364867         1.983163
 H        -0.701528        -1.369354        -1.682425
 H        -1.242545        -3.443350        -0.956666
