19
Iteration:  4860
 C         1.695375         0.282690        -0.092740
 C         0.216399         0.078958        -0.328808
 C        -0.592687         0.173853        -1.491227
 C        -1.917407        -0.597602        -1.052559
 C        -2.053729        -0.204303         0.545611
 C        -0.662211        -0.808058         0.579716
 O        -0.179771        -1.035869         1.951767
 C        -1.184115        -1.884926        -0.427276
 O        -1.883176        -2.903541         0.269270
 H         2.372250         0.237099        -0.967015
 H         1.755295         1.374326         0.173156
 H         2.141562        -0.409180         0.656243
 H        -0.227234         0.712367        -2.465104
 H        -2.650009        -0.660725        -1.842555
 H        -2.296665         0.783815         0.963365
 H        -2.700781        -0.944743         0.958549
 H         0.298816        -1.886313         2.008280
 H        -0.425257        -2.162991        -1.215630
 H        -2.255817        -3.341647        -0.425324
