19
Iteration:  3413charge 0 multiplicity 1
 C         1.542748         0.611313        -0.048747
 C         0.082171         0.226661        -0.050558
 C        -0.999031         0.800865        -0.626389
 C        -2.131284        -0.267277        -0.385252
 C        -1.781758        -0.726840         1.078282
 C        -0.436258        -1.099885         0.526664
 O         0.478513        -1.938916         1.227838
 C        -1.331752        -1.612216        -0.849811
 O        -2.023839        -2.752859        -0.674992
 H         1.708251         1.458346         0.619018
 H         1.979354        -0.330769         0.279066
 H         1.820321         0.842180        -1.060428
 H        -1.080508         1.725410        -1.295396
 H        -3.228277        -0.084640        -0.538601
 H        -1.787649         0.108617         1.882789
 H        -2.507361        -1.470747         1.285099
 H        -0.126731        -2.190466         2.022643
 H        -0.703741        -1.654357        -1.676729
 H        -1.643155        -3.388256         0.029083
