19
Iteration:  4855
 C         1.666149         0.274663        -0.094617
 C         0.224438         0.070265        -0.380777
 C        -0.597395         0.137769        -1.460838
 C        -1.909520        -0.572505        -1.031467
 C        -2.036992        -0.153172         0.517470
 C        -0.665533        -0.808404         0.561361
 O        -0.189541        -1.070206         1.970120
 C        -1.168103        -1.862300        -0.430241
 O        -1.866177        -2.888540         0.269776
 H         2.428727         0.182929        -0.909427
 H         1.712029         1.336459         0.147653
 H         2.037036        -0.245914         0.812167
 H        -0.343792         0.663779        -2.341626
 H        -2.715082        -0.622890        -1.798273
 H        -2.416843         0.769271         1.014053
 H        -2.729079        -0.945156         0.974686
 H         0.394639        -1.845526         1.889095
 H        -0.432414        -2.226681        -1.175944
 H        -2.173876        -3.601974        -0.450186
