19
Iteration:   601charge 0 multiplicity 1
 C         1.561316         0.811347        -0.004640
 C         0.069010         0.279936         0.141663
 C        -1.041279         0.881327        -0.242983
 C        -2.024027        -0.236311        -0.184023
 C        -1.762410        -0.946514         1.196712
 C        -0.401195        -1.291440         0.457385
 O         0.754486        -2.110992         0.801350
 C        -1.439682        -1.530991        -0.925445
 O        -2.309664        -2.613241        -0.767421
 H         1.477902         1.801287         0.367855
 H         2.223836         0.094488         0.565584
 H         1.764273         0.706177        -1.086029
 H        -1.120255         1.805663        -0.754918
 H        -3.087765        -0.107097        -0.418304
 H        -1.583933        -0.267518         2.102838
 H        -2.542944        -1.807306         1.367111
 H         0.560527        -2.588217         1.676004
 H        -1.218655        -1.355255        -1.973016
 H        -2.087434        -3.165575        -1.530722
