19
Iteration:  2469charge 0 multiplicity 1
 C         1.528894         0.624416         0.243531
 C         0.097354         0.248693         0.011593
 C        -1.164981         0.778476        -0.311509
 C        -2.206940        -0.269732         0.073590
 C        -1.660197        -0.892696         1.349748
 C        -0.437916        -1.124287         0.342153
 O         0.568714        -2.207506         0.493622
 C        -1.429694        -1.366541        -0.859099
 O        -2.005466        -2.601360        -0.837017
 H         2.025440         1.360674        -0.395226
 H         1.615445         0.896407         1.279462
 H         2.197400        -0.277056         0.104474
 H        -1.400812         1.597540        -0.884285
 H        -3.254632        -0.150118        -0.163442
 H        -1.300295        -0.293650         2.245250
 H        -2.349055        -1.634112         1.765537
 H         1.450608        -1.820502         0.927695
 H        -1.024991        -0.972481        -1.784701
 H        -2.650572        -2.615743        -1.690498
