19
Iteration:  1252
 C         1.436754         0.641179         0.129806
 C         0.087525         0.219728        -0.137275
 C        -1.018210         0.806369        -0.555755
 C        -2.051874        -0.319735        -0.337394
 C        -1.628973        -0.701240         1.122671
 C        -0.425172        -1.211161         0.421814
 O         0.544938        -1.947880         1.068739
 C        -1.347429        -1.593540        -0.836307
 O        -2.218533        -2.708008        -0.619353
 H         1.959717         1.198239        -0.676744
 H         1.432048         1.504916         0.917454
 H         2.093726        -0.039924         0.709860
 H        -1.226067         1.633492        -1.296105
 H        -3.046507        -0.013481        -0.694363
 H        -1.594272         0.281141         1.567456
 H        -2.265379        -1.552343         1.593763
 H         0.704121        -2.905996         0.836134
 H        -0.983606        -1.525794        -1.877376
 H        -1.891591        -3.049950         0.161985
