19
Iteration:  2479charge 0 multiplicity 1
 C         1.541908         0.627138         0.260436
 C         0.033166         0.272395         0.040648
 C        -1.145942         0.846695        -0.269792
 C        -2.182825        -0.258221        -0.034197
 C        -1.634883        -0.857912         1.334271
 C        -0.364182        -1.205301         0.339396
 O         0.510637        -2.224765         0.488714
 C        -1.468847        -1.334085        -0.760157
 O        -1.977978        -2.658503        -0.841431
 H         1.749641         1.274319        -0.592728
 H         1.825456         1.076766         1.182742
 H         2.051121        -0.343234         0.136220
 H        -1.378688         1.768085        -0.685015
 H        -3.229346        -0.038871        -0.276895
 H        -1.602833        -0.135471         2.227901
 H        -1.971759        -1.905424         1.553195
 H         1.416594        -1.777188         0.579470
 H        -1.001591        -1.028784        -1.693277
 H        -2.682619        -2.719028        -1.601437
