19
Iteration:   925charge 0 multiplicity 1
 C         1.487184         0.628831        -0.128873
 C         0.073496         0.205884         0.000090
 C        -1.030330         0.787905        -0.333981
 C        -2.092962        -0.261121        -0.214562
 C        -1.837066        -0.851979         1.213244
 C        -0.353629        -1.184490         0.545202
 O         0.669104        -1.925516         1.067523
 C        -1.331180        -1.478407        -0.780218
 O        -2.230794        -2.637067        -0.866964
 H         1.600519         1.776138        -0.123534
 H         2.129388         0.351511         0.681579
 H         2.058259         0.076612        -0.925689
 H        -1.117199         1.517879        -1.182271
 H        -3.125937        -0.225906        -0.563266
 H        -1.927152        -0.076397         2.026128
 H        -2.415238        -1.781863         1.346559
 H         0.475596        -2.878808         1.143161
 H        -0.847179        -1.401319        -1.770327
 H        -1.791384        -3.368480        -1.319282
