19
Iteration:  1876
 C         1.532190         0.511555        -0.174681
 C         0.009719         0.273703        -0.020087
 C        -1.048635         0.906833        -0.470442
 C        -2.165589        -0.141849        -0.154209
 C        -1.774784        -0.809712         1.270899
 C        -0.476358        -1.139396         0.481662
 O         0.345361        -2.055316         1.029424
 C        -1.318508        -1.471851        -0.810052
 O        -1.709787        -2.753226        -0.721403
 H         1.849539        -0.011986        -1.096207
 H         1.859300         1.575611        -0.106549
 H         2.102584        -0.019183         0.596269
 H        -1.119812         1.924941        -0.874009
 H        -3.234939         0.078391        -0.313732
 H        -1.724363        -0.189968         2.168652
 H        -2.267828        -1.762132         1.384990
 H        -0.164877        -2.874856         1.100161
 H        -1.005382        -1.346407        -1.848737
 H        -2.509280        -2.849056        -1.284730
