19
Iteration:  1598charge 0 multiplicity 1
 C         1.510916         0.501967        -0.227477
 C         0.107882         0.232888         0.013313
 C        -1.042210         0.859817        -0.419924
 C        -2.039922        -0.169287        -0.354289
 C        -1.880226        -0.762180         1.090561
 C        -0.466436        -1.128990         0.505988
 O         0.408525        -2.008163         1.173238
 C        -1.233780        -1.486987        -0.755524
 O        -2.011572        -2.764835        -0.664869
 H         2.022272        -0.390058        -0.489429
 H         1.672476         1.302146        -1.053389
 H         2.073698         0.813227         0.700891
 H        -1.035127         1.816898        -1.023356
 H        -3.046191        -0.093579        -0.780537
 H        -2.161696        -0.054451         1.818351
 H        -2.410957        -1.712643         1.287735
 H         0.403655        -1.852881         2.178078
 H        -0.873922        -1.398035        -1.767161
 H        -1.433157        -3.491689        -1.102643
