19
Iteration:  4652charge 0 multiplicity 1
 C         1.640907         0.491503        -0.125412
 C         0.268995         0.022998        -0.264142
 C        -0.635880         0.258360        -1.297771
 C        -1.859880        -0.599664        -0.934364
 C        -2.111716        -0.224597         0.567632
 C        -0.590787        -0.848244         0.637137
 O        -0.007981        -1.181923         1.898284
 C        -1.169723        -1.927152        -0.459754
 O        -2.113260        -2.868090         0.027610
 H         1.851270         1.205054        -0.913655
 H         1.913227         0.947668         0.842531
 H         2.326552        -0.350319        -0.301723
 H        -0.457547         0.495327        -2.325546
 H        -2.706359        -0.654962        -1.605288
 H        -2.267726         0.849777         0.712348
 H        -2.871159        -1.020802         0.955432
 H         0.975976        -1.490613         1.845513
 H        -0.583038        -2.283571        -1.278856
 H        -1.723831        -3.819882        -0.056369
