19
Iteration:  4394
 C         1.655391         0.431760        -0.118879
 C         0.143668         0.155952        -0.266424
 C        -0.802516         0.365989        -1.213044
 C        -1.992912        -0.472205        -0.763418
 C        -1.941645        -0.193010         0.738097
 C        -0.563835        -0.899360         0.586421
 O        -0.068874        -1.412528         1.745093
 C        -1.174802        -1.819043        -0.523209
 O        -1.815153        -2.996161        -0.132948
 H         2.196247        -0.266315        -0.765017
 H         1.960585         1.471915        -0.312636
 H         1.914697         0.204287         0.928411
 H        -0.709522         0.984628        -2.164820
 H        -2.902772        -0.523261        -1.352527
 H        -2.027679         0.904794         1.004052
 H        -2.554769        -0.851286         1.364983
 H         0.773811        -2.031495         1.649661
 H        -0.529309        -2.111025        -1.356097
 H        -2.824861        -2.940442         0.090551
