19
Iteration:  4957charge 0 multiplicity 1
 C         1.615293         0.578551        -0.043782
 C         0.285873        -0.076034        -0.414062
 C        -0.555683         0.088400        -1.493000
 C        -1.790302        -0.648697        -1.051776
 C        -2.018276        -0.067295         0.418849
 C        -0.650902        -0.889913         0.634411
 O        -0.157802        -1.160293         1.909996
 C        -1.144364        -1.988847        -0.349736
 O        -2.055369        -2.969343         0.203730
 H         1.479736         1.533860         0.563800
 H         2.180699        -0.086637         0.675790
 H         2.299023         0.880798        -0.896274
 H        -0.411186         0.689278        -2.341498
 H        -2.648139        -0.775762        -1.668215
 H        -1.901771         0.984221         0.566114
 H        -3.031669        -0.482254         0.906210
 H         0.198580        -0.238055         2.131587
 H        -0.440950        -2.431848        -1.133435
 H        -2.187623        -2.822456         1.122392
