19
Iteration:  3002
 C         1.478773         0.698200         0.081300
 C         0.069244         0.278418         0.145464
 C        -1.081190         0.831430        -0.405773
 C        -2.101671        -0.270833        -0.186424
 C        -1.723017        -0.762765         1.142375
 C        -0.368573        -1.208233         0.395547
 O         0.585775        -2.162229         0.838408
 C        -1.343576        -1.468501        -0.868907
 O        -2.165530        -2.689602        -0.769481
 H         2.159611        -0.013454         0.627117
 H         1.857479         0.739554        -0.934695
 H         1.637357         1.702547         0.498876
 H        -1.409893         1.917818        -0.619256
 H        -3.203451        -0.094165        -0.435658
 H        -1.713226         0.054326         1.990453
 H        -2.353299        -1.592005         1.424022
 H         0.749484        -2.247544         1.862520
 H        -0.877363        -1.432520        -1.834034
 H        -1.692773        -3.445892        -1.208759
