19
Iteration:   933
 C         1.477424         0.623790        -0.072755
 C         0.097667         0.213019         0.066006
 C        -1.070167         0.798148        -0.416020
 C        -2.055200        -0.348610        -0.230993
 C        -1.812758        -0.862934         1.165323
 C        -0.354891        -1.134573         0.547135
 O         0.686677        -1.909062         1.038382
 C        -1.285626        -1.514436        -0.771210
 O        -2.297317        -2.604828        -0.855247
 H         1.672149         1.666253        -0.167718
 H         2.179983         0.062436         0.682698
 H         1.813747         0.385720        -1.096573
 H        -1.029881         1.693476        -1.043818
 H        -3.129140        -0.176047        -0.472124
 H        -1.946420        -0.219239         2.129740
 H        -2.285489        -1.836354         1.316626
 H         0.300886        -2.745120         1.297897
 H        -0.825328        -1.353549        -1.753312
 H        -1.898252        -3.400563        -1.143913
