19
Iteration:  2359
 C         1.541266         0.626869        -0.093618
 C         0.080201         0.210219         0.110597
 C        -1.114699         0.831990        -0.154830
 C        -2.228539        -0.245166         0.045772
 C        -1.669283        -0.814958         1.383073
 C        -0.426671        -1.122962         0.391483
 O         0.460320        -2.147169         0.735445
 C        -1.393489        -1.329458        -0.769652
 O        -1.952581        -2.747533        -0.988768
 H         1.787606         1.439705         0.692487
 H         2.118357        -0.233905         0.169111
 H         1.839347         0.901794        -1.138223
 H        -1.200588         1.932454        -0.443683
 H        -3.267687        -0.035095        -0.354165
 H        -1.554287         0.069525         2.025435
 H        -2.051199        -1.726623         1.878556
 H         0.599316        -2.749617        -0.025127
 H        -0.978329        -1.018601        -1.745577
 H        -1.844840        -3.011351        -1.832831
