19
Iteration:   885charge 0 multiplicity 1
 C         1.497104         0.559556        -0.147877
 C         0.024674         0.287669        -0.015837
 C        -1.089791         0.867018        -0.339531
 C        -2.147366        -0.205876        -0.082463
 C        -1.643665        -0.719545         1.282850
 C        -0.438312        -1.086497         0.438314
 O         0.368666        -2.123801         0.978182
 C        -1.366833        -1.449843        -0.776459
 O        -1.826108        -2.802861        -0.813541
 H         1.810098         1.030258        -1.123137
 H         1.697704         1.137012         0.825534
 H         2.221980        -0.280991        -0.081542
 H        -1.306020         1.702329        -1.040476
 H        -3.146963         0.057233        -0.422591
 H        -1.534807        -0.017768         2.055811
 H        -2.169213        -1.632699         1.645993
 H        -0.274253        -2.866893         0.857670
 H        -0.899329        -1.197721        -1.746202
 H        -2.064562        -2.998479        -1.780123
