19
Iteration:   209
 C         1.595677         0.602349        -0.076123
 C         0.029707         0.318342         0.081427
 C        -1.180561         0.891510        -0.195211
 C        -2.178539        -0.159703         0.193545
 C        -1.622697        -0.939587         1.382001
 C        -0.469016        -1.151178         0.417291
 O         0.395116        -2.208522         0.641817
 C        -1.465634        -1.319969        -0.749483
 O        -1.757724        -2.722524        -1.000062
 H         1.624478         1.381846        -0.796048
 H         2.038284         0.827113         0.943978
 H         2.034084        -0.337294        -0.473383
 H        -1.452537         1.910659        -0.656642
 H        -3.237430         0.080756         0.064668
 H        -1.478193        -0.507075         2.385448
 H        -2.163194        -1.865020         1.426753
 H         0.506555        -2.830832        -0.159305
 H        -1.200814        -0.803263        -1.670317
 H        -2.330055        -2.727320        -1.849356
