19
Iteration:  2680charge 0 multiplicity 1
 C         1.524646         0.859961         0.231454
 C         0.084310         0.238691         0.003333
 C        -1.032875         0.883531        -0.315352
 C        -2.155955        -0.219881        -0.001956
 C        -1.572580        -0.957936         1.338285
 C        -0.397258        -1.185773         0.363281
 O         0.532376        -2.331576         0.603249
 C        -1.535967        -1.439146        -0.816261
 O        -2.144138        -2.648005        -0.921409
 H         1.416079         1.682569         0.914613
 H         2.332945         0.234194         0.643868
 H         1.828857         1.266155        -0.726269
 H        -1.164996         1.895843        -0.432552
 H        -3.212041         0.114618        -0.225934
 H        -1.347412        -0.468892         2.277635
 H        -2.327491        -1.790487         1.508243
 H         1.265542        -1.955741         1.179411
 H        -1.152271        -1.219682        -1.771910
 H        -1.790491        -3.116046        -1.800673
