19
Iteration:   561
 C         1.503112         0.685754         0.175694
 C         0.057293         0.246271        -0.167600
 C        -1.089759         0.901124        -0.390084
 C        -2.127717        -0.253160        -0.087132
 C        -1.644753        -0.812925         1.298336
 C        -0.383634        -1.163513         0.343178
 O         0.485594        -2.198345         0.702091
 C        -1.416944        -1.403344        -0.768566
 O        -2.000243        -2.714836        -0.682760
 H         1.673549         1.791745         0.206070
 H         1.706111         0.447640         1.234656
 H         2.384808         0.282284        -0.329819
 H        -1.395282         1.862076        -0.624665
 H        -3.155577         0.017495        -0.180892
 H        -1.558720        -0.142599         2.119321
 H        -2.268618        -1.624517         1.690196
 H         0.227116        -2.946657         0.168459
 H        -1.020611        -1.192434        -1.796038
 H        -2.086312        -3.153829        -1.523960
