19
Iteration:   645charge 0 multiplicity 1
 C         1.474326         0.624539        -0.104715
 C         0.060188         0.185433         0.010373
 C        -1.163076         0.886863        -0.287893
 C        -2.168582        -0.249016         0.021200
 C        -1.612102        -0.905458         1.340484
 C        -0.430974        -1.263229         0.432183
 O         0.551690        -2.180222         0.925813
 C        -1.352670        -1.345152        -0.897589
 O        -2.092478        -2.551763        -0.995736
 H         1.685571         1.430182         0.560099
 H         2.077005        -0.352414         0.022530
 H         1.702841         0.921302        -1.159621
 H        -1.393177         1.759346        -0.866902
 H        -3.233654        -0.058019        -0.118434
 H        -1.288571        -0.205859         2.145040
 H        -2.240974        -1.869697         1.602638
 H         0.984337        -1.648426         1.683173
 H        -0.809942        -0.995133        -1.758342
 H        -1.483790        -3.343898        -1.043464
