19
Iteration:  2195charge 0 multiplicity 1
 C         1.494630         0.642318         0.174378
 C         0.085240         0.230797         0.069299
 C        -1.098507         0.810448        -0.340614
 C        -2.151743        -0.267765        -0.171354
 C        -1.730267        -0.771130         1.206471
 C        -0.464619        -1.183069         0.377240
 O         0.564748        -2.099335         0.565913
 C        -1.313873        -1.413383        -0.826439
 O        -2.027654        -2.672894        -0.577921
 H         2.115079        -0.084810        -0.452654
 H         1.676569         1.631064        -0.112081
 H         1.916853         0.595553         1.178483
 H        -1.226832         1.840691        -0.474082
 H        -3.235233        -0.044114        -0.325323
 H        -1.466276        -0.130140         2.001722
 H        -2.149691        -1.693638         1.523788
 H         0.126943        -2.959847         0.482761
 H        -0.827993        -1.244199        -1.826284
 H        -2.329882        -2.995600        -1.550295
