19
Iteration:  2597
 C         1.557367         0.565103        -0.040037
 C         0.050943         0.207002         0.113024
 C        -1.106551         0.880710        -0.071512
 C        -2.217932        -0.237219         0.113739
 C        -1.652509        -0.969208         1.321419
 C        -0.459230        -1.194507         0.372559
 O         0.634966        -2.025739         0.724876
 C        -1.496986        -1.304208        -0.825496
 O        -1.990924        -2.684123        -1.095826
 H         1.698973         1.504930        -0.697045
 H         1.940802         0.725438         0.992938
 H         2.027612        -0.379872        -0.354482
 H        -1.303994         1.812893        -0.489123
 H        -3.252841         0.024842        -0.127029
 H        -1.442955        -0.287268         2.189501
 H        -2.291006        -1.859773         1.558792
 H         0.407155        -2.900693         0.937008
 H        -1.038690        -0.832645        -1.764842
 H        -2.106259        -2.684806        -1.997100
