19
Iteration:  3512charge 0 multiplicity 1
 C         1.552738         0.786987         0.054065
 C         0.134853         0.133391        -0.176390
 C        -0.933450         0.785184        -0.754653
 C        -2.039029        -0.206170        -0.512521
 C        -1.887523        -0.558550         1.085607
 C        -0.436022        -1.123724         0.469113
 O         0.252706        -2.062143         1.203005
 C        -1.310815        -1.683309        -0.674886
 O        -1.903304        -2.909570        -0.466025
 H         2.160266         0.237848        -0.675271
 H         1.472455         1.887276        -0.124727
 H         1.812331         0.473081         1.034229
 H        -0.982738         1.820956        -1.100122
 H        -2.947349         0.114604        -0.983385
 H        -1.875856         0.228190         1.875119
 H        -2.441622        -1.461075         1.356361
 H         0.899686        -1.532808         1.719996
 H        -0.898438        -1.773045        -1.668470
 H        -2.716790        -2.933524        -0.976660
