19
Iteration:  1458
 C         1.474825         0.701115         0.051639
 C         0.196278         0.150410        -0.134258
 C        -0.949335         0.655237        -0.632179
 C        -2.137766        -0.216478        -0.384419
 C        -1.734868        -0.543596         1.191638
 C        -0.419551        -1.064470         0.498252
 O         0.397454        -2.081991         1.072752
 C        -1.402493        -1.600904        -0.721540
 O        -2.080370        -2.823502        -0.654577
 H         1.466150         1.707631        -0.308785
 H         1.624825         0.776962         1.173957
 H         2.275837         0.173196        -0.373581
 H        -1.040154         1.582657        -1.092809
 H        -3.130657         0.092582        -0.735673
 H        -1.636166         0.234283         1.895329
 H        -2.444326        -1.281785         1.660200
 H         1.038142        -1.492437         1.622857
 H        -0.857903        -1.735741        -1.656152
 H        -1.661349        -3.421440        -1.181583
