19
Iteration:  4420
 C         1.644246         0.443499        -0.097931
 C         0.171681         0.061435        -0.308935
 C        -0.736878         0.418306        -1.302800
 C        -1.921670        -0.400452        -0.810236
 C        -2.037674        -0.370936         0.745018
 C        -0.602477        -0.894739         0.657633
 O         0.070938        -1.320240         1.790423
 C        -1.212996        -1.833256        -0.575860
 O        -1.915251        -2.950664        -0.065961
 H         2.254432         0.442815        -1.039222
 H         1.544595         1.364196         0.457968
 H         2.155766        -0.263536         0.558840
 H        -0.570188         1.017848        -2.152177
 H        -2.864583        -0.476860        -1.379933
 H        -2.371323         0.568974         1.285213
 H        -2.600819        -1.254325         1.046320
 H         0.911999        -1.879163         1.550087
 H        -0.623212        -2.279243        -1.399596
 H        -2.942811        -2.843557        -0.043072
