19
Iteration:   236charge 0 multiplicity 1
 C         1.499111         0.619066        -0.001589
 C        -0.025833         0.227745         0.110749
 C        -1.138801         0.898581        -0.079350
 C        -2.098507        -0.250230        -0.027067
 C        -1.638866        -0.944157         1.274517
 C        -0.396656        -1.216957         0.395847
 O         0.611290        -2.144580         0.628318
 C        -1.423958        -1.350879        -0.857831
 O        -2.027319        -2.595950        -0.819892
 H         1.374664         1.651837        -0.321706
 H         1.907808         0.460143         0.949194
 H         1.940983        -0.002497        -0.766397
 H        -1.250995         1.909557        -0.264055
 H        -3.158323        -0.011837        -0.156098
 H        -1.508191        -0.236296         2.089508
 H        -2.296076        -1.788652         1.590300
 H         0.724676        -2.819793        -0.124098
 H        -1.128773        -0.982922        -1.852796
 H        -2.221617        -2.992650        -1.735646
