19
Iteration:  4876
 C         1.671744         0.331094        -0.146594
 C         0.233677         0.052781        -0.312522
 C        -0.602198         0.204359        -1.352635
 C        -1.815377        -0.622802        -0.984313
 C        -2.096059        -0.255045         0.456194
 C        -0.679637        -0.797997         0.621343
 O        -0.117630        -0.958555         1.900965
 C        -1.102028        -1.922251        -0.431051
 O        -1.943884        -2.921600         0.204235
 H         2.138348         0.527167        -1.139782
 H         2.010604         1.118406         0.513115
 H         2.121176        -0.562268         0.295412
 H        -0.377537         0.521138        -2.330084
 H        -2.710206        -0.697079        -1.652754
 H        -2.256349         0.901271         0.667422
 H        -2.908586        -0.779790         1.066024
 H        -0.231989        -1.980324         2.073519
 H        -0.352290        -2.466703        -0.964661
 H        -2.736612        -3.218954        -0.248054
