19
Iteration:  2422
 C         1.540526         0.781238         0.087255
 C         0.102488         0.242768         0.077477
 C        -1.092845         0.888014        -0.092118
 C        -2.106383        -0.226065        -0.066877
 C        -1.647083        -0.978294         1.167262
 C        -0.366895        -1.269374         0.297037
 O         0.628925        -2.157558         0.669881
 C        -1.446760        -1.425909        -0.933675
 O        -2.194083        -2.661656        -0.779416
 H         1.614013         1.911014        -0.041376
 H         2.011103         0.443277         0.998089
 H         2.156109         0.460095        -0.749425
 H        -1.326469         2.003762        -0.284249
 H        -3.174470         0.118350        -0.127435
 H        -1.658275        -0.223087         2.017679
 H        -2.146400        -1.909772         1.651496
 H         0.309451        -2.668060         1.476001
 H        -0.993835        -1.125460        -1.883168
 H        -2.501268        -2.922292        -1.628065
