19
Iteration:  3636charge 0 multiplicity 1
 C         1.610609         0.560410        -0.198801
 C         0.126208         0.225906        -0.091667
 C        -0.966158         0.722207        -0.814607
 C        -2.055393        -0.276705        -0.556208
 C        -1.949734        -0.506616         1.034926
 C        -0.552391        -1.057194         0.662051
 O         0.366226        -1.892528         1.397740
 C        -1.222321        -1.659167        -0.626471
 O        -2.003150        -2.800158        -0.508933
 H         1.877256         0.466830         0.862814
 H         2.218864         0.041888        -0.899049
 H         1.626736         1.665258        -0.394371
 H        -0.667844         1.353197        -1.721192
 H        -3.145663        -0.301373        -0.926503
 H        -2.019649         0.395024         1.667737
 H        -2.677526        -1.315358         1.388526
 H         0.269626        -2.853233         1.103079
 H        -0.645291        -1.753296        -1.485811
 H        -1.499996        -3.577406        -0.581644
