19
Iteration:  4339
 C         1.676254         0.515665        -0.175810
 C         0.226120         0.149516        -0.245090
 C        -0.689895         0.357178        -1.218191
 C        -1.941331        -0.401848        -0.803754
 C        -2.038415        -0.373971         0.828537
 C        -0.633439        -0.879399         0.631528
 O        -0.032711        -1.436875         1.763437
 C        -1.249662        -1.760136        -0.651750
 O        -1.927164        -2.989605        -0.137648
 H         2.191070        -0.056977         0.580381
 H         2.241977         0.181262        -1.037285
 H         1.820210         1.569234        -0.009756
 H        -0.685387         1.174440        -2.008900
 H        -2.806885        -0.272604        -1.488593
 H        -2.257567         0.559712         1.358192
 H        -2.655386        -1.174505         1.256583
 H         0.703841        -2.128046         1.635033
 H        -0.535684        -2.013710        -1.393519
 H        -1.828979        -3.154539         0.860506
