19
Iteration:  3643
 C         1.595914         0.575708        -0.184905
 C         0.086362         0.207722        -0.047135
 C        -0.870712         0.713837        -0.788090
 C        -2.053142        -0.340267        -0.533984
 C        -1.922235        -0.490926         1.010870
 C        -0.584018        -1.046282         0.652067
 O         0.340883        -1.847820         1.360230
 C        -1.249166        -1.677197        -0.633012
 O        -2.020987        -2.804288        -0.477260
 H         2.321788         0.370367         0.654036
 H         2.222403         0.294010        -1.092334
 H         1.627265         1.655877        -0.224133
 H        -0.944337         1.308027        -1.692973
 H        -2.909939        -0.247803        -1.141664
 H        -2.043622         0.323851         1.677325
 H        -2.616649        -1.278786         1.333437
 H         0.194501        -2.831686         1.045003
 H        -0.522418        -1.724419        -1.546496
 H        -1.452218        -3.602656        -0.699442
