19
Iteration:  2419
 C         1.550346         0.797219         0.070807
 C         0.082530         0.254290         0.078650
 C        -1.062446         0.865026        -0.087245
 C        -2.095139        -0.255945        -0.061892
 C        -1.651144        -1.003609         1.171859
 C        -0.395404        -1.239631         0.292462
 O         0.612114        -2.158328         0.690077
 C        -1.461303        -1.416989        -0.938998
 O        -2.184613        -2.630346        -0.766318
 H         1.643147         1.858808         0.021172
 H         2.149502         0.434440         0.975868
 H         2.154281         0.546942        -0.808090
 H        -1.394860         1.884433        -0.362412
 H        -3.118207         0.071179        -0.139385
 H        -1.677400        -0.240350         1.934330
 H        -2.125107        -1.909911         1.580769
 H         0.298525        -2.777509         1.287057
 H        -0.854218        -1.157023        -1.852801
 H        -2.483150        -2.964784        -1.607735
