19
Iteration:  3826charge 0 multiplicity 1
 C         1.612417         0.565078        -0.096425
 C         0.170290         0.117254        -0.174682
 C        -0.879677         0.541727        -0.951371
 C        -2.064785        -0.326510        -0.521453
 C        -1.916710        -0.333556         0.928223
 C        -0.508846        -0.974954         0.581435
 O         0.116207        -1.794953         1.548643
 C        -1.258385        -1.699973        -0.682543
 O        -1.901676        -2.928710        -0.472921
 H         1.852814         0.724043         0.968519
 H         2.362997        -0.120432        -0.515385
 H         1.570340         1.486158        -0.628668
 H        -1.057407         1.057643        -1.967687
 H        -3.005214        -0.106789        -0.928356
 H        -1.709414         0.645951         1.472531
 H        -2.733081        -0.867703         1.434121
 H         0.957207        -1.777445         1.194670
 H        -0.754994        -1.809090        -1.585315
 H        -1.736890        -3.191853         0.487285
