19
Iteration:  1067charge 0 multiplicity 1
 C         1.557036         0.709843         0.023855
 C         0.096142         0.202217         0.002337
 C        -0.970911         0.775626        -0.391078
 C        -2.132306        -0.153345        -0.278820
 C        -1.734279        -0.767577         1.059538
 C        -0.403246        -1.185293         0.396497
 O         0.498195        -2.054409         0.975773
 C        -1.429263        -1.588873        -0.818050
 O        -2.138066        -2.754358        -0.710962
 H         2.273535        -0.117367         0.459337
 H         1.726066         1.082608        -1.015891
 H         1.746592         1.600515         0.740202
 H        -1.272366         1.627625        -1.003136
 H        -3.171152         0.061009        -0.550130
 H        -1.624230        -0.117153         1.961099
 H        -2.285911        -1.801016         1.282307
 H         0.813497        -1.646845         1.859363
 H        -0.998577        -1.366702        -1.820194
 H        -1.733016        -3.164984         0.033967
