19
Iteration:  1715
 C         1.537157         0.743901         0.120229
 C         0.119338         0.219321        -0.120772
 C        -0.975624         0.867868        -0.488900
 C        -2.051651        -0.223143        -0.353044
 C        -1.768077        -0.770762         1.097455
 C        -0.430348        -1.161472         0.403564
 O         0.372316        -2.206380         0.885899
 C        -1.380488        -1.586008        -0.822189
 O        -2.075049        -2.692152        -0.493616
 H         1.555629         1.521525         1.013909
 H         2.205695        -0.046364         0.385201
 H         1.994189         1.307817        -0.729906
 H        -1.249306         1.874156        -0.916419
 H        -3.046810         0.173073        -0.586349
 H        -1.876499        -0.012845         1.947351
 H        -2.440679        -1.639780         1.308749
 H         0.845847        -1.717207         1.647140
 H        -0.880488        -1.611068        -1.848672
 H        -1.435281        -3.423887        -0.415519
