19
Iteration:  4809
 C         1.613931         0.500460        -0.132160
 C         0.176857         0.064511        -0.300610
 C        -0.545341         0.062994        -1.407131
 C        -1.840880        -0.579352        -0.982533
 C        -1.978680        -0.057647         0.459206
 C        -0.620273        -0.769579         0.662086
 O        -0.124964        -1.254690         1.894348
 C        -1.233201        -1.941463        -0.410127
 O        -2.049863        -2.959086         0.153801
 H         2.216013        -0.398946        -0.237358
 H         2.057983         1.269061        -0.775789
 H         1.816018         0.712530         0.936769
 H        -0.522761         0.691952        -2.269307
 H        -2.697433        -0.550470        -1.719069
 H        -2.042427         1.124876         0.641151
 H        -2.849007        -0.424306         1.000815
 H         0.795428        -1.264247         1.904114
 H        -0.443618        -2.282957        -1.065896
 H        -1.385625        -3.672034         0.313785
