19
Iteration:  1206charge 0 multiplicity 1
 C         1.508037         0.655418         0.005743
 C         0.128089         0.211398        -0.072779
 C        -1.033768         0.761569        -0.601679
 C        -2.113204        -0.186241        -0.239860
 C        -1.736468        -0.596248         1.249601
 C        -0.444920        -1.089425         0.488208
 O         0.407697        -2.056232         1.036072
 C        -1.370869        -1.547911        -0.766247
 O        -1.950052        -2.884194        -0.692081
 H         2.018522         0.834896        -0.911082
 H         1.693855         1.690816         0.601298
 H         2.042885        -0.022400         0.656903
 H        -1.081470         1.435469        -1.409077
 H        -3.159948        -0.004516        -0.529112
 H        -1.510685         0.166520         2.003596
 H        -2.358198        -1.444163         1.546826
 H         0.616917        -2.543962         0.257802
 H        -0.870490        -1.580535        -1.752194
 H        -2.913421        -2.858016        -0.593624
