19
Iteration:   407
 C         1.502078         0.614429        -0.129096
 C         0.101747         0.257644         0.198870
 C        -1.186878         0.831363        -0.178944
 C        -2.173858        -0.294556         0.063882
 C        -1.597839        -0.901474         1.324313
 C        -0.420574        -1.148894         0.378768
 O         0.561085        -2.186915         0.700949
 C        -1.357767        -1.348528        -0.824993
 O        -2.069819        -2.567245        -1.008485
 H         1.953383        -0.396093         0.169192
 H         1.529609         0.892792        -1.202536
 H         1.760353         1.473915         0.467442
 H        -1.261655         1.792142        -0.788216
 H        -3.268299        -0.112816        -0.052089
 H        -1.418543        -0.161240         2.067671
 H        -2.319061        -1.683255         1.610415
 H         0.166488        -2.461114         1.544288
 H        -0.917107        -0.921103        -1.771930
 H        -1.446917        -3.339514        -1.004125
