19
Iteration:  2394
 C         1.433417         0.761839        -0.021854
 C         0.027720         0.220736         0.117642
 C        -1.029233         0.852951        -0.261761
 C        -2.143935        -0.176116        -0.054869
 C        -1.669412        -1.022983         1.246909
 C        -0.324810        -1.180898         0.412293
 O         0.550251        -2.231414         0.727050
 C        -1.337844        -1.353005        -0.791750
 O        -2.124071        -2.610482        -0.788990
 H         1.569049         1.788139         0.340875
 H         2.196403         0.192774         0.554441
 H         1.839595         0.849818        -1.066876
 H        -1.081668         1.877929        -0.462027
 H        -3.181454        -0.024651        -0.329263
 H        -1.678660        -0.550415         2.220688
 H        -2.126899        -1.961646         1.321580
 H         0.326697        -2.992424         0.189368
 H        -1.075997        -0.882828        -1.788850
 H        -2.036114        -2.923044        -1.619584
