19
Iteration:  2713
 C         1.403979         0.689945         0.264462
 C         0.086005         0.234388        -0.002487
 C        -1.151887         0.840022        -0.268941
 C        -2.110367        -0.306089        -0.042099
 C        -1.486227        -0.938298         1.266877
 C        -0.378397        -1.237886         0.307150
 O         0.570431        -2.183034         0.721478
 C        -1.382221        -1.439310        -0.889829
 O        -2.256965        -2.490545        -0.922535
 H         1.480359         1.137660         1.247862
 H         2.276565         0.046415         0.114111
 H         1.608273         1.540067        -0.368650
 H        -1.296286         1.853384        -0.470807
 H        -3.205000        -0.215879        -0.278488
 H        -1.195809        -0.291902         2.086021
 H        -2.127911        -1.847494         1.607716
 H         1.419704        -1.937369         0.472490
 H        -0.906457        -1.187635        -1.801782
 H        -1.811033        -3.300105        -0.903105
