19
Iteration:  3515
 C         1.544616         0.785706         0.044354
 C         0.122502         0.151203        -0.158536
 C        -0.923018         0.783406        -0.769434
 C        -2.054958        -0.204402        -0.523146
 C        -1.883270        -0.557098         1.062562
 C        -0.429237        -1.113808         0.479989
 O         0.263788        -2.072828         1.212046
 C        -1.306327        -1.705458        -0.665218
 O        -1.912230        -2.890021        -0.466797
 H         2.147550         0.363762        -0.784225
 H         1.624689         1.857993         0.036353
 H         1.858930         0.398249         1.026140
 H        -1.011374         1.769585        -1.062589
 H        -2.978851         0.024062        -1.025883
 H        -1.893992         0.199450         1.810913
 H        -2.385294        -1.547054         1.481880
 H         0.859362        -1.578095         1.704025
 H        -0.949518        -1.719161        -1.648213
 H        -2.699299        -2.916386        -0.977078
