19
Iteration:   718charge 0 multiplicity 1
 C         1.463980         0.636545        -0.082334
 C        -0.012844         0.277039         0.046222
 C        -1.077715         0.927462        -0.254501
 C        -2.115279        -0.156676        -0.117141
 C        -1.663408        -0.967899         1.208410
 C        -0.399326        -1.145029         0.385179
 O         0.510846        -2.273957         0.692604
 C        -1.366059        -1.380926        -0.854565
 O        -2.015045        -2.633997        -0.677180
 H         2.081094         0.210516         0.859691
 H         1.797738         0.217750        -1.041932
 H         1.465583         1.775051        -0.200948
 H        -1.201633         1.998561        -0.400962
 H        -3.213890        -0.064421        -0.306674
 H        -1.714716        -0.304321         2.063382
 H        -2.261486        -1.836910         1.304425
 H         0.604396        -2.314203         1.646542
 H        -0.935330        -1.084695        -1.869689
 H        -1.467895        -3.223606        -0.163920
