19
Iteration:   520
 C         1.482428         0.610192         0.165850
 C         0.069242         0.235738         0.021859
 C        -1.015933         0.845897        -0.339431
 C        -2.159806        -0.199094        -0.060913
 C        -1.705738        -0.778491         1.318405
 C        -0.493654        -1.148408         0.324345
 O         0.443935        -2.131693         0.544215
 C        -1.460300        -1.359581        -0.826243
 O        -1.764523        -2.791607        -0.690474
 H         1.844748         1.136244        -0.803891
 H         1.561950         1.312200         0.989542
 H         2.265816        -0.154391         0.242753
 H        -1.234609         1.842338        -0.551503
 H        -3.197922         0.046737        -0.299762
 H        -1.556167        -0.000874         2.073710
 H        -2.216269        -1.598913         1.744091
 H        -0.090612        -2.997723         0.647905
 H        -1.058394        -1.189116        -1.842069
 H        -2.731371        -2.966735        -0.992762
