19
Iteration:  1245charge 0 multiplicity 1
 C         1.442446         0.680038         0.154833
 C         0.112447         0.146785        -0.147764
 C        -1.057186         0.749261        -0.549254
 C        -2.062243        -0.288345        -0.319282
 C        -1.640761        -0.648128         1.107002
 C        -0.406036        -1.137603         0.389377
 O         0.541730        -1.948442         1.094016
 C        -1.367495        -1.587935        -0.846803
 O        -2.205493        -2.756714        -0.656757
 H         2.103920         1.027586        -0.718182
 H         1.320073         1.449263         0.823911
 H         2.000884        -0.190794         0.598951
 H        -1.187054         1.643705        -1.196875
 H        -3.067351         0.069552        -0.576641
 H        -1.468232         0.154136         1.889406
 H        -2.201234        -1.393675         1.730707
 H         0.749186        -2.896851         0.746355
 H        -0.924102        -1.426425        -1.847551
 H        -1.925216        -2.987780         0.216266
