19
Iteration:  4247
 C         1.519089         0.682815        -0.004342
 C         0.160059         0.083613        -0.284565
 C        -0.719729         0.401201        -1.282870
 C        -1.941873        -0.453461        -0.832809
 C        -1.883014        -0.307415         0.812261
 C        -0.515375        -0.976250         0.607596
 O         0.117731        -1.682306         1.607439
 C        -1.190375        -1.794386        -0.571234
 O        -2.125275        -2.861943        -0.057176
 H         1.679119         1.739311        -0.118390
 H         1.750981         0.521329         1.069700
 H         2.241747         0.137113        -0.646185
 H        -0.648278         1.297015        -1.926288
 H        -2.842655        -0.391027        -1.428266
 H        -1.908507         0.720192         1.236445
 H        -2.578756        -0.922246         1.372332
 H         0.492071        -1.031262         2.135489
 H        -0.429433        -2.198692        -1.322435
 H        -1.755566        -3.664989        -0.357120
