19
Iteration:  1454
 C         1.490431         0.716454         0.065697
 C         0.179872         0.127150        -0.143728
 C        -0.956281         0.668564        -0.660755
 C        -2.139422        -0.209326        -0.358828
 C        -1.733346        -0.573346         1.187214
 C        -0.428759        -1.079736         0.483156
 O         0.378654        -2.065361         1.113410
 C        -1.414535        -1.617567        -0.727896
 O        -2.059304        -2.816755        -0.651281
 H         1.602636         1.744535        -0.293125
 H         1.688195         0.714040         1.153528
 H         2.289659         0.177400        -0.564291
 H        -1.062040         1.690607        -1.114114
 H        -3.110016         0.195146        -0.723055
 H        -1.579454         0.256698         1.946695
 H        -2.374012        -1.294345         1.616118
 H         1.044767        -1.582452         1.561367
 H        -0.973821        -1.521543        -1.745437
 H        -1.580357        -3.529922        -1.242370
