19
Iteration:  2972
 C         1.518655         0.741232         0.020103
 C         0.120072         0.204914         0.023430
 C        -0.979595         0.867595        -0.302631
 C        -2.127703        -0.208127        -0.177020
 C        -1.791214        -0.913237         1.181955
 C        -0.425244        -1.166690         0.421495
 O         0.334460        -2.194766         0.756835
 C        -1.331859        -1.403099        -0.815301
 O        -1.991933        -2.695186        -0.692976
 H         1.890012         0.659014         1.000521
 H         2.193281         0.317293        -0.694931
 H         1.277330         1.749480        -0.304644
 H        -1.193237         1.960092        -0.653024
 H        -3.170762        -0.001481        -0.552380
 H        -1.942902        -0.350520         2.116226
 H        -2.241038        -1.884932         1.124500
 H         0.995533        -1.974771         1.380436
 H        -0.767397        -1.275428        -1.833617
 H        -1.286263        -3.301367        -0.709394
