19
Iteration:   644charge 0 multiplicity 1
 C         1.472461         0.629819        -0.100884
 C         0.054977         0.187898         0.005460
 C        -1.145028         0.882687        -0.284675
 C        -2.160857        -0.258147         0.020628
 C        -1.610259        -0.917630         1.341428
 C        -0.434968        -1.262803         0.429025
 O         0.548890        -2.169026         0.928094
 C        -1.354403        -1.349495        -0.903168
 O        -2.102785        -2.542852        -0.990725
 H         1.707232         1.439654         0.523458
 H         2.104802        -0.325613         0.027924
 H         1.731756         0.934904        -1.148477
 H        -1.416039         1.730143        -0.830996
 H        -3.241463        -0.094812        -0.155352
 H        -1.289292        -0.222178         2.135568
 H        -2.228411        -1.849122         1.567428
 H         0.981273        -1.647671         1.707592
 H        -0.810801        -0.995797        -1.754998
 H        -1.507891        -3.393290        -1.046962
