19
Iteration:   743charge 0 multiplicity 1
 C         1.610545         0.776272         0.040238
 C         0.101920         0.239679        -0.031373
 C        -1.093403         0.786634        -0.238494
 C        -2.113471        -0.292937        -0.082658
 C        -1.611115        -0.813435         1.281521
 C        -0.407044        -1.171562         0.355229
 O         0.558841        -2.121297         0.708534
 C        -1.449122        -1.477582        -0.834594
 O        -2.225771        -2.696473        -0.842697
 H         2.142475         0.096887         0.688495
 H         2.013715         0.773319        -1.041313
 H         1.603348         1.831428         0.369226
 H        -1.278079         1.772445        -0.697720
 H        -3.158246        -0.114186        -0.227347
 H        -1.498273        -0.021610         2.009270
 H        -2.178964        -1.731044         1.688400
 H         0.445236        -2.338192         1.664548
 H        -1.029916        -1.173940        -1.790303
 H        -1.814356        -3.443610        -0.288782
