19
Iteration:  1650
 C         1.542336         0.529453        -0.123615
 C         0.072004         0.221857        -0.073144
 C        -1.010973         0.758194        -0.610832
 C        -2.114616        -0.272001        -0.261361
 C        -1.847454        -0.785834         1.222619
 C        -0.468314        -1.085562         0.624253
 O         0.498388        -2.020338         1.224595
 C        -1.313381        -1.533038        -0.789715
 O        -2.091350        -2.602675        -0.851963
 H         2.152184        -0.113099         0.545214
 H         2.024228         0.368847        -1.063773
 H         1.648511         1.598817         0.158952
 H        -1.125562         1.647038        -1.277770
 H        -3.185473        -0.104389        -0.451568
 H        -2.001833        -0.018363         2.056410
 H        -2.307289        -1.769401         1.447271
 H         1.220488        -1.578215         1.717867
 H        -0.635127        -1.450472        -1.695114
 H        -1.587803        -3.470671        -1.129675
