19
Iteration:  2314charge 0 multiplicity 1
 C         1.453483         0.527233        -0.102707
 C         0.031919         0.186833         0.042222
 C        -1.063480         0.881424        -0.136882
 C        -2.231700        -0.179743         0.004170
 C        -1.776256        -0.985035         1.257225
 C        -0.451003        -1.164954         0.429818
 O         0.631418        -2.092876         0.730087
 C        -1.342115        -1.357696        -0.846162
 O        -1.896459        -2.596336        -0.859820
 H         1.858471         1.012403         0.874558
 H         2.156966        -0.261498        -0.318689
 H         1.587890         1.289540        -0.894039
 H        -1.271107         1.837359        -0.691823
 H        -3.297556         0.199417        -0.098346
 H        -1.667672        -0.436985         2.210509
 H        -2.332078        -1.964701         1.295462
 H         0.304221        -2.797392         1.312434
 H        -0.928447        -0.982349        -1.800185
 H        -2.568580        -2.628517        -1.466231
