19
Iteration:  2739
 C         1.507320         0.699277         0.196283
 C         0.099171         0.278098         0.127038
 C        -1.062574         0.857817        -0.164261
 C        -2.110207        -0.227709        -0.145123
 C        -1.737413        -0.983823         1.191048
 C        -0.360553        -1.199313         0.382155
 O         0.695423        -2.103682         0.685163
 C        -1.479614        -1.465378        -0.864208
 O        -2.252815        -2.636611        -0.882651
 H         2.048033         0.489795         1.174547
 H         2.093523         0.207210        -0.592081
 H         1.561999         1.820699         0.077650
 H        -1.178181         1.963859        -0.486849
 H        -3.134159         0.037066        -0.364625
 H        -1.638160        -0.359224         2.082563
 H        -2.448446        -1.765355         1.237601
 H         1.131314        -2.341118        -0.109888
 H        -0.989535        -1.261523        -1.868989
 H        -1.767312        -3.319922        -0.547481
