19
Iteration:  1729charge 0 multiplicity 1
 C         1.515837         0.712023         0.176700
 C         0.109366         0.235518        -0.012578
 C        -0.954448         0.774201        -0.613659
 C        -2.120304        -0.244918        -0.326830
 C        -1.788500        -0.816635         1.124628
 C        -0.421274        -1.116925         0.386851
 O         0.428009        -2.154103         0.798289
 C        -1.292786        -1.441616        -0.854674
 O        -2.137772        -2.679130        -0.447817
 H         1.409638         1.624923         0.785747
 H         2.170789        -0.086102         0.675296
 H         1.974720         0.987528        -0.796401
 H        -0.948321         1.726091        -1.099158
 H        -3.123977        -0.234727        -0.704332
 H        -1.690495        -0.057833         1.906995
 H        -2.286971        -1.782654         1.411839
 H         0.674733        -2.172473         1.718578
 H        -0.966152        -1.471849        -1.942711
 H        -1.401288        -3.286323        -0.012130
