19
Iteration:  3967charge 0 multiplicity 1
 C         1.503129         0.673194        -0.030896
 C         0.152592         0.017598        -0.217017
 C        -0.716677         0.555137        -1.080776
 C        -1.932248        -0.335487        -0.714439
 C        -1.918166        -0.417628         0.852923
 C        -0.557265        -1.069481         0.537429
 O         0.177805        -1.698597         1.489833
 C        -1.300274        -1.774382        -0.611885
 O        -2.066301        -2.849586        -0.170764
 H         1.551054         1.693160        -0.440118
 H         1.740802         0.750301         1.031995
 H         2.397826         0.094386        -0.394967
 H        -0.671571         1.322911        -1.948427
 H        -2.807420        -0.207509        -1.287778
 H        -1.961927         0.546921         1.375879
 H        -2.681111        -1.075137         1.278497
 H         1.131332        -1.866415         1.419684
 H        -0.556495        -1.986399        -1.457334
 H        -1.675746        -3.155959         0.636507
