19
Iteration:  1772charge 0 multiplicity 1
 C         1.473019         0.639076         0.177830
 C         0.100633         0.146837        -0.179943
 C        -0.965459         0.835539        -0.499447
 C        -2.150375        -0.241000        -0.257831
 C        -1.695326        -0.567043         1.218962
 C        -0.424890        -1.139795         0.378582
 O         0.578450        -2.022253         0.877323
 C        -1.449462        -1.542013        -0.729341
 O        -2.128339        -2.854732        -0.727362
 H         1.617027         1.750882         0.134002
 H         1.750421         0.460541         1.240883
 H         2.291097         0.155454        -0.408247
 H        -1.111695         1.841929        -0.803100
 H        -3.147862         0.004142        -0.581160
 H        -1.402223         0.162656         1.976408
 H        -2.416156        -1.349911         1.672414
 H         0.036168        -2.339674         1.559807
 H        -0.916827        -1.579369        -1.708710
 H        -1.521421        -3.522486        -0.677125
