19
Iteration:  4051
 C         1.588607         0.608796        -0.079703
 C         0.186739         0.049629        -0.276542
 C        -0.747963         0.377269        -1.185779
 C        -1.974940        -0.390529        -0.676726
 C        -1.891884        -0.288939         0.891387
 C        -0.558643        -0.982922         0.632985
 O         0.107565        -1.566217         1.705766
 C        -1.294854        -1.742432        -0.634589
 O        -2.039152        -2.904347        -0.243585
 H         1.906555         0.602681         0.943965
 H         2.289722        -0.052737        -0.611793
 H         1.643349         1.663652        -0.486805
 H        -0.816573         1.372845        -1.746539
 H        -2.808734        -0.392006        -1.347170
 H        -1.808459         0.681962         1.491510
 H        -2.461341        -1.019480         1.372513
 H         0.772159        -2.137179         1.348426
 H        -0.671342        -1.909325        -1.456957
 H        -1.799883        -3.710798        -0.798581
