19
Iteration:  4682
 C         1.601642         0.446745        -0.045391
 C         0.193092         0.111610        -0.395172
 C        -0.665414         0.322717        -1.387530
 C        -1.850440        -0.614232        -0.975652
 C        -1.959388        -0.156219         0.547154
 C        -0.548462        -0.888866         0.552785
 O        -0.167730        -1.294143         1.822661
 C        -1.106224        -1.934628        -0.406149
 O        -2.028490        -2.845705         0.207520
 H         1.716831         1.553849         0.081220
 H         1.977155         0.118617         0.901718
 H         2.236098         0.067151        -0.854558
 H        -0.579144         0.866607        -2.358479
 H        -2.869169        -0.773632        -1.478793
 H        -2.006909         0.879973         0.747829
 H        -2.753537        -0.805894         1.082068
 H         0.558581        -1.933374         1.823393
 H        -0.449113        -2.355449        -1.183737
 H        -1.647630        -3.671703         0.238131
