19
Iteration:   875
 C         1.548867         0.553645        -0.123284
 C         0.087525         0.284791        -0.049173
 C        -1.194870         0.917778        -0.355615
 C        -2.184277        -0.201163        -0.128710
 C        -1.731628        -0.709347         1.309476
 C        -0.460591        -1.109806         0.486266
 O         0.351757        -2.202001         0.884865
 C        -1.311995        -1.416423        -0.778327
 O        -1.747062        -2.777183        -0.754200
 H         1.900649         1.047566        -1.035167
 H         1.953508         1.497990         0.508279
 H         2.058251        -0.368511         0.198034
 H        -1.245065         1.655666        -1.188079
 H        -3.245227         0.049823        -0.160279
 H        -1.411814        -0.023894         2.056766
 H        -2.179762        -1.653645         1.715234
 H        -0.272584        -3.003573         0.936300
 H        -0.882579        -1.161086        -1.760237
 H        -2.340631        -3.072670        -1.560093
