19
Iteration:    17
 C         1.658201         0.776427         0.165018
 C         0.143255         0.300374         0.166622
 C        -1.157144         0.903146         0.043522
 C        -2.202319        -0.262735        -0.093955
 C        -1.678626        -1.043084         1.224050
 C        -0.403662        -1.143406         0.301529
 O         0.479912        -2.262957         0.299145
 C        -1.365253        -1.332088        -0.875035
 O        -2.127448        -2.614208        -0.750842
 H         2.125044         0.179311         1.036786
 H         2.009630         0.533821        -0.859642
 H         1.654759         1.884357         0.272960
 H        -1.393623         1.909635         0.465931
 H        -3.268006        -0.073151        -0.330055
 H        -1.577290        -0.482347         2.186546
 H        -2.161347        -2.029531         1.316735
 H         0.643819        -2.607373         1.226652
 H        -1.013133        -1.216757        -1.937207
 H        -1.558151        -3.309720        -1.229377
