19
Iteration:   244charge 0 multiplicity 1
 C         1.450308         0.640514         0.026653
 C         0.111764         0.178911         0.084725
 C        -1.153474         0.890325        -0.091594
 C        -2.099596        -0.256306        -0.054271
 C        -1.685636        -0.957517         1.268443
 C        -0.438969        -1.252502         0.332075
 O         0.694432        -2.110537         0.640824
 C        -1.377820        -1.346441        -0.854233
 O        -2.128183        -2.565261        -0.769502
 H         1.507994         1.790634        -0.111139
 H         2.048994         0.498078         0.932912
 H         1.932341         0.207361        -0.818300
 H        -1.502761         1.958101        -0.038598
 H        -3.181602        -0.156699        -0.320180
 H        -1.528796        -0.342629         2.118714
 H        -2.292386        -1.825088         1.439587
 H         0.598466        -2.907230         0.015681
 H        -1.062246        -1.122789        -1.859077
 H        -2.213032        -2.913390        -1.716693
