19
Iteration:  3010
 C         1.425401         0.664906         0.101582
 C         0.028995         0.270469         0.047809
 C        -1.075467         0.851542        -0.430516
 C        -2.064415        -0.290196        -0.221847
 C        -1.689686        -0.760769         1.190611
 C        -0.366465        -1.113481         0.444542
 O         0.638283        -2.143990         0.841684
 C        -1.336770        -1.513184        -0.787410
 O        -2.225503        -2.678125        -0.826919
 H         2.136480        -0.149672         0.558701
 H         1.870842         0.878962        -0.946966
 H         1.693121         1.515324         0.777611
 H        -1.305131         1.852238        -0.634009
 H        -3.132916        -0.248478        -0.360554
 H        -1.713180        -0.077874         2.061647
 H        -2.210108        -1.713373         1.398511
 H         0.474923        -2.317172         1.854387
 H        -0.749045        -1.448148        -1.689131
 H        -1.692513        -3.312742        -1.280688
