19
Iteration:   916charge 0 multiplicity 1
 C         1.548306         0.631127        -0.162558
 C         0.117989         0.138862         0.011289
 C        -1.066935         0.818603        -0.355847
 C        -2.160370        -0.218559        -0.165568
 C        -1.808177        -0.824252         1.244770
 C        -0.462668        -1.201355         0.510763
 O         0.660267        -1.965221         1.108440
 C        -1.383360        -1.495170        -0.824199
 O        -2.118661        -2.663918        -0.860709
 H         1.458190         1.753739        -0.456867
 H         1.880355         0.588885         0.818901
 H         2.124317         0.007840        -0.891981
 H        -1.210007         1.720389        -1.024083
 H        -3.092003         0.071740        -0.631287
 H        -1.753558        -0.115067         2.021065
 H        -2.498777        -1.632111         1.536117
 H         0.484435        -2.907400         0.941324
 H        -0.793666        -1.282712        -1.741148
 H        -1.641468        -3.190864        -1.504260
