19
Iteration:  2112charge 0 multiplicity 1
 C         1.433659         0.616717        -0.147698
 C         0.033696         0.190072         0.059260
 C        -1.117399         0.753500        -0.418227
 C        -2.099083        -0.214049        -0.068889
 C        -1.739263        -0.792425         1.315311
 C        -0.417264        -1.187879         0.457552
 O         0.628995        -2.120673         0.997908
 C        -1.322489        -1.401412        -0.714904
 O        -2.015580        -2.623620        -0.955501
 H         1.576002         1.378589        -0.880676
 H         1.910973         1.121808         0.775509
 H         2.111174        -0.263501        -0.366025
 H        -1.249453         1.737673        -0.814534
 H        -3.154444         0.062834        -0.150898
 H        -1.875045        -0.064588         2.194992
 H        -2.376397        -1.733734         1.495526
 H         0.278440        -3.064511         0.753088
 H        -0.697974        -1.111023        -1.557904
 H        -2.551297        -2.594765        -1.788422
