19
Iteration:  2981charge 0 multiplicity 1
 C         1.524707         0.764442         0.030142
 C         0.135012         0.176820         0.051953
 C        -1.014256         0.856806        -0.254862
 C        -2.116409        -0.240139        -0.272932
 C        -1.795576        -0.932295         1.206268
 C        -0.497429        -1.143368         0.363624
 O         0.415050        -2.183634         0.779914
 C        -1.379568        -1.415721        -0.834763
 O        -2.015623        -2.671615        -0.685083
 H         2.164164         0.552878         0.875556
 H         2.124894         0.433698        -0.763037
 H         1.554002         1.842040         0.032045
 H        -0.995521         1.837810        -0.874508
 H        -3.180777         0.008015        -0.599185
 H        -1.674227        -0.266357         2.152767
 H        -2.265616        -1.865065         1.476617
 H         0.845017        -1.862174         1.559362
 H        -0.858267        -1.391459        -1.822040
 H        -1.353346        -3.275043        -0.909538
