19
Iteration:  1272
 C         1.510766         0.737032         0.121287
 C         0.083833         0.216441        -0.060591
 C        -0.995339         0.738558        -0.658869
 C        -2.082321        -0.280307        -0.400525
 C        -1.809743        -0.734039         1.108553
 C        -0.424204        -1.083814         0.431401
 O         0.596381        -2.007006         1.004706
 C        -1.263920        -1.640195        -0.756975
 O        -2.266387        -2.678819        -0.540801
 H         1.893720         1.223565        -0.734487
 H         1.817585         1.464647         1.015323
 H         2.112891        -0.148054         0.300353
 H        -1.150680         1.810606        -0.885996
 H        -3.098155        -0.046557        -0.784665
 H        -1.644995        -0.162732         2.006582
 H        -2.414037        -1.607797         1.365522
 H         0.465325        -3.001542         0.829156
 H        -0.729660        -1.525794        -1.723446
 H        -1.726989        -3.336356        -0.099370
