19
Iteration:  2086
 C         1.597120         0.598946        -0.194057
 C         0.046840         0.215191         0.094582
 C        -1.054209         0.859192        -0.208189
 C        -2.133362        -0.202319        -0.146308
 C        -1.745466        -0.936428         1.233114
 C        -0.468882        -1.137123         0.487755
 O         0.543186        -1.984144         0.960089
 C        -1.402339        -1.406587        -0.828220
 O        -2.017087        -2.733383        -0.837419
 H         1.659748         1.726620        -0.446702
 H         2.191985         0.483602         0.680819
 H         2.064045        -0.033635        -0.965517
 H        -1.084598         1.783929        -0.833177
 H        -3.221835         0.026216        -0.201457
 H        -1.706467        -0.194329         1.972927
 H        -2.399358        -1.781818         1.362573
 H         0.129087        -2.928422         0.869717
 H        -0.893545        -1.141779        -1.792271
 H        -2.189514        -3.210408        -1.739235
