19
Iteration:  1838charge 0 multiplicity 1
 C         1.532342         0.623681        -0.221048
 C         0.082595         0.213786         0.108364
 C        -0.978004         0.818068        -0.329428
 C        -2.073402        -0.252572        -0.328918
 C        -1.973893        -0.761010         1.214697
 C        -0.456846        -1.147685         0.514880
 O         0.564237        -1.983289         1.032787
 C        -1.247327        -1.566341        -0.762867
 O        -2.032263        -2.726074        -0.710071
 H         1.520135         0.885255        -1.281450
 H         1.875182         1.589693         0.209560
 H         2.248215        -0.215257        -0.063016
 H        -1.004704         1.852492        -0.662157
 H        -3.113558        -0.152707        -0.654758
 H        -2.018673         0.025954         1.986175
 H        -2.873922        -1.408900         1.498061
 H         0.236195        -2.951365         0.943113
 H        -0.565297        -1.378391        -1.648047
 H        -2.392586        -2.896333        -1.699614
