19
Iteration:  4536
 C         1.647210         0.504004        -0.022968
 C         0.174718         0.216135        -0.342614
 C        -0.689888         0.366689        -1.367566
 C        -1.870419        -0.583823        -0.907046
 C        -2.067493        -0.202143         0.628221
 C        -0.572312        -0.861716         0.598721
 O        -0.107069        -1.570881         1.687107
 C        -1.144504        -1.854734        -0.477229
 O        -1.982317        -2.870229         0.131458
 H         1.966403         0.139026         0.965318
 H         2.254698        -0.039481        -0.775050
 H         1.945616         1.578443        -0.051637
 H        -0.768695         1.020711        -2.200879
 H        -2.771006        -0.727263        -1.470885
 H        -2.072752         0.909698         0.758428
 H        -2.750555        -0.765257         1.175297
 H         0.920292        -1.444847         1.634333
 H        -0.470739        -2.233971        -1.275891
 H        -1.531712        -3.251348         0.983552
