19
Iteration:   628charge 0 multiplicity 1
 C         1.530548         0.693924        -0.109325
 C         0.139737         0.201671         0.023537
 C        -1.136822         0.805442        -0.232075
 C        -2.079224        -0.320033        -0.089718
 C        -1.655594        -1.011455         1.243549
 C        -0.349372        -1.179783         0.412276
 O         0.553712        -2.068377         0.907440
 C        -1.348233        -1.454978        -0.806815
 O        -2.275712        -2.515141        -0.946448
 H         1.539782         1.595898         0.599580
 H         2.168663        -0.073906         0.278350
 H         1.685917         0.916061        -1.165266
 H        -1.168589         1.924749        -0.469428
 H        -3.144804        -0.113015        -0.286996
 H        -1.628030        -0.438970         2.165818
 H        -2.093213        -1.969827         1.485220
 H         0.749705        -1.729972         1.821743
 H        -1.015331        -1.187998        -1.851147
 H        -1.720512        -3.268720        -1.136584
