19
Iteration:  4344
 C         1.662929         0.508991        -0.170924
 C         0.213105         0.127007        -0.259622
 C        -0.665883         0.394947        -1.205994
 C        -1.938335        -0.377949        -0.779531
 C        -2.029311        -0.359568         0.784020
 C        -0.643924        -0.879474         0.640437
 O        -0.027330        -1.432516         1.764796
 C        -1.259486        -1.769577        -0.588751
 O        -1.906292        -3.007878        -0.153137
 H         2.306236        -0.165114         0.466749
 H         2.112076         0.286291        -1.178842
 H         1.719908         1.602161         0.059968
 H        -0.581648         0.954033        -2.110242
 H        -2.888168        -0.311917        -1.294917
 H        -2.219465         0.570456         1.392037
 H        -2.766342        -1.137338         1.062269
 H         0.538211        -2.147644         1.598905
 H        -0.525606        -2.026035        -1.422266
 H        -1.799138        -3.165122         0.757836
