19
Iteration:  4879
 C         1.647360         0.325009        -0.167135
 C         0.253430         0.057889        -0.295512
 C        -0.631989         0.183322        -1.317125
 C        -1.801639        -0.638535        -0.961500
 C        -2.093525        -0.210608         0.427761
 C        -0.690729        -0.800512         0.607897
 O        -0.096607        -0.966792         1.909603
 C        -1.082482        -1.936146        -0.421034
 O        -1.956577        -2.922738         0.191854
 H         2.202391         0.647430        -1.132145
 H         1.926875         1.117382         0.547257
 H         2.127479        -0.627735         0.216440
 H        -0.378650         0.591183        -2.377751
 H        -2.630659        -0.679578        -1.644884
 H        -2.313847         0.796489         0.611274
 H        -2.914311        -0.762568         1.015161
 H        -0.330103        -1.854150         2.079356
 H        -0.250529        -2.463108        -1.007650
 H        -2.758769        -3.137854        -0.240726
