19
Iteration:  4228charge 0 multiplicity 1
 C         1.532140         0.654397        -0.055381
 C         0.171568         0.114258        -0.295177
 C        -0.844321         0.522967        -1.166432
 C        -1.883065        -0.512959        -0.804761
 C        -1.906854        -0.241003         0.676056
 C        -0.463837        -1.030594         0.613315
 O         0.190748        -1.729562         1.700813
 C        -1.173032        -1.893997        -0.548259
 O        -2.097946        -2.782095        -0.102647
 H         1.682982         1.434494        -0.757271
 H         1.599402         0.943610         0.999837
 H         2.275193        -0.150802        -0.250722
 H        -1.053892         1.333795        -1.822863
 H        -2.833719        -0.507187        -1.408268
 H        -1.812788         0.733037         1.024635
 H        -2.795686        -0.752727         1.221998
 H         0.004056        -1.197870         2.409334
 H        -0.579974        -2.258633        -1.321695
 H        -2.123147        -3.613683        -0.546063
