19
Iteration:  4126charge 0 multiplicity 1
 C         1.636453         0.365844        -0.111690
 C         0.147056         0.153257        -0.247442
 C        -0.845979         0.564876        -1.114301
 C        -2.013562        -0.349578        -0.753074
 C        -1.963580        -0.339800         0.820685
 C        -0.570078        -0.924330         0.602242
 O         0.057539        -1.540186         1.728463
 C        -1.262803        -1.729759        -0.608340
 O        -1.810217        -2.969238        -0.153047
 H         2.062333        -0.616362        -0.250781
 H         1.883435         0.974975        -0.985415
 H         1.930796         0.744500         0.860438
 H        -0.574985         0.833209        -2.206110
 H        -2.991367        -0.284848        -1.196513
 H        -2.158185         0.693885         1.334266
 H        -2.655246        -1.097496         1.045676
 H         1.104765        -1.621967         1.623354
 H        -0.640155        -1.930877        -1.505980
 H        -2.416213        -3.285018        -0.819352
