19
Iteration:  4822charge 0 multiplicity 1
 C         1.630435         0.378622        -0.074112
 C         0.214395         0.052667        -0.308520
 C        -0.616007         0.129403        -1.417054
 C        -1.895686        -0.644878        -1.014674
 C        -2.005953         0.054338         0.491312
 C        -0.676119        -0.821979         0.618415
 O        -0.188016        -1.237695         1.856228
 C        -1.177908        -1.868728        -0.381229
 O        -1.929403        -2.925828         0.188060
 H         2.362362        -0.276297        -0.639213
 H         1.727669         1.402436        -0.456678
 H         1.817431         0.555293         1.016749
 H        -0.356283         0.506054        -2.329095
 H        -2.787918        -0.863514        -1.663495
 H        -1.746728         1.151452         0.565691
 H        -2.760608        -0.425605         1.193480
 H         0.828127        -1.435893         1.671074
 H        -0.368775        -2.381536        -0.945926
 H        -1.499233        -3.818927         0.075184
