19
Iteration:   321charge 0 multiplicity 1
 C         1.378464         0.699592         0.168244
 C         0.076874         0.201853        -0.127540
 C        -1.160439         0.861799        -0.190214
 C        -2.101027        -0.230222         0.062061
 C        -1.546418        -0.845276         1.389551
 C        -0.350710        -1.176632         0.369687
 O         0.511610        -2.296599         0.507244
 C        -1.341703        -1.436073        -0.836057
 O        -2.168984        -2.589955        -0.927919
 H         1.469183         1.358125         1.122280
 H         2.168873         0.015087         0.303099
 H         1.862473         1.368818        -0.474999
 H        -1.238403         1.882851        -0.404796
 H        -3.160419         0.014028        -0.151912
 H        -1.244797        -0.113471         2.065318
 H        -2.205269        -1.576101         1.824699
 H         1.169909        -2.031313         1.103363
 H        -1.068921        -1.142845        -1.837180
 H        -1.665137        -3.365140        -0.748805
