19
Iteration:  1027charge 0 multiplicity 1
 C         1.483002         0.763438         0.128880
 C         0.072303         0.262765        -0.049889
 C        -1.038467         0.736202        -0.494618
 C        -2.125197        -0.250280        -0.292985
 C        -1.739749        -0.624327         1.164035
 C        -0.439091        -1.099233         0.459578
 O         0.340146        -2.329457         0.723384
 C        -1.315622        -1.462975        -0.761512
 O        -1.962390        -2.719196        -0.569417
 H         2.165606         0.336044         0.895319
 H         2.029243         0.494906        -0.761646
 H         1.693745         1.825611         0.352583
 H        -1.204802         1.690063        -1.010020
 H        -3.130032         0.055623        -0.687890
 H        -1.629302         0.232909         1.783891
 H        -2.355767        -1.427459         1.539801
 H         0.891779        -2.238714         1.491188
 H        -0.789080        -1.546984        -1.721714
 H        -1.452048        -3.424479        -0.072302
