19
Iteration:  2903charge 0 multiplicity 1
 C         1.548016         0.630937         0.044099
 C         0.050471         0.212095        -0.073492
 C        -1.118170         0.933998        -0.321864
 C        -2.156827        -0.149444        -0.057200
 C        -1.754087        -0.902950         1.281719
 C        -0.451420        -1.192791         0.472096
 O         0.561589        -2.170312         0.909512
 C        -1.407318        -1.429387        -0.778924
 O        -1.969817        -2.732811        -1.066153
 H         1.603592         1.691702         0.222764
 H         2.080099         0.215150         0.839234
 H         2.055897         0.353414        -0.835351
 H        -1.176094         1.869675        -0.734989
 H        -3.194562         0.008763        -0.337343
 H        -1.604578        -0.259285         2.205272
 H        -2.309003        -1.817913         1.412186
 H         1.326388        -1.563405         1.195292
 H        -1.143089        -1.154320        -1.787676
 H        -2.593943        -2.997446        -0.360478
