19
Iteration:  2279
 C         1.539592         0.728980        -0.015982
 C         0.071178         0.288278         0.184588
 C        -1.144253         0.927817        -0.153122
 C        -2.166152        -0.211775        -0.109471
 C        -1.723044        -0.915575         1.188271
 C        -0.374108        -1.172720         0.405611
 O         0.633686        -2.188846         0.688343
 C        -1.324994        -1.518853        -0.873562
 O        -2.093868        -2.690308        -0.828073
 H         2.167449         0.441134         0.894914
 H         1.853803         0.173771        -0.973901
 H         1.518817         1.817141        -0.172767
 H        -1.116240         1.818169        -0.677640
 H        -3.185030         0.165265        -0.114607
 H        -1.539234        -0.260765         2.100775
 H        -2.262213        -1.874623         1.607946
 H         0.185860        -2.623832         1.440332
 H        -0.958244        -1.397368        -1.905100
 H        -2.792151        -2.575369        -1.363216
