19
Iteration:   460
 C         1.525459         0.675382        -0.077045
 C         0.044031         0.165064         0.100846
 C        -1.060882         0.822049        -0.131607
 C        -2.131608        -0.273048        -0.083494
 C        -1.612747        -0.971454         1.253622
 C        -0.415120        -1.261412         0.380367
 O         0.706192        -1.968424         0.951199
 C        -1.428402        -1.428524        -0.878561
 O        -2.251287        -2.585649        -0.938344
 H         2.007212         0.170421        -0.914558
 H         1.410878         1.725767        -0.500068
 H         2.119602         0.614968         0.852777
 H        -1.276407         1.786637        -0.607880
 H        -3.193607        -0.012243        -0.274546
 H        -1.383841        -0.202873         2.020422
 H        -2.158602        -1.957449         1.462499
 H         0.589008        -2.927001         0.863317
 H        -0.906493        -1.194496        -1.850458
 H        -2.493651        -2.736603        -1.895539
