19
Iteration:   880charge 0 multiplicity 1
 C         1.514728         0.546973        -0.132883
 C         0.050190         0.301551        -0.038238
 C        -1.148923         0.897901        -0.335801
 C        -2.155147        -0.208312        -0.111839
 C        -1.694726        -0.717252         1.294595
 C        -0.456705        -1.090490         0.455344
 O         0.359388        -2.169720         0.936908
 C        -1.333296        -1.434864        -0.766574
 O        -1.791069        -2.794919        -0.797855
 H         1.900943         1.057773        -1.039268
 H         1.835173         1.271505         0.591599
 H         2.222134        -0.274100         0.059706
 H        -1.270823         1.601125        -1.140335
 H        -3.207167         0.105966        -0.271145
 H        -1.378871         0.030391         2.120215
 H        -2.101370        -1.648675         1.669139
 H        -0.303591        -2.864107         0.884565
 H        -0.893732        -1.199640        -1.742973
 H        -2.165688        -3.057846        -1.601199
