19
Iteration:  4814
 C         1.610448         0.471705        -0.133488
 C         0.208717         0.081072        -0.264344
 C        -0.571597         0.066221        -1.410235
 C        -1.854287        -0.591647        -1.015926
 C        -1.990361         0.018572         0.462780
 C        -0.634800        -0.789050         0.670625
 O        -0.149840        -1.252003         1.872515
 C        -1.245414        -1.930006        -0.416230
 O        -2.003012        -2.954239         0.167977
 H         2.287974        -0.446356        -0.298746
 H         1.953135         1.350081        -0.704290
 H         1.717815         0.529502         0.978277
 H        -0.539368         0.695097        -2.341915
 H        -2.723027        -0.750974        -1.628362
 H        -1.862129         1.011105         0.613738
 H        -2.777717        -0.508231         1.092501
 H         0.881400        -1.321359         1.833028
 H        -0.321804        -2.320532        -0.984165
 H        -1.428225        -3.711834         0.237654
