19
Iteration:  2910charge 0 multiplicity 1
 C         1.496195         0.616305         0.047011
 C         0.057821         0.232259        -0.056369
 C        -1.084912         0.839479        -0.339717
 C        -2.193056        -0.155106        -0.034320
 C        -1.707619        -0.819334         1.305113
 C        -0.436781        -1.178552         0.455802
 O         0.504075        -2.162380         0.875000
 C        -1.396351        -1.445821        -0.792475
 O        -1.943373        -2.747410        -1.066943
 H         1.699085         1.700677         0.342013
 H         2.133108         0.031818         0.826765
 H         2.105593         0.594539        -0.919659
 H        -1.315689         1.939200        -0.554433
 H        -3.185615         0.178596        -0.298226
 H        -1.727743        -0.264069         2.225974
 H        -2.338250        -1.776394         1.489634
 H         1.255214        -1.643298         1.132255
 H        -0.929198        -1.142190        -1.720880
 H        -2.452104        -3.009099        -0.365912
