19
Iteration:  4757
 C         1.582671         0.560582        -0.077230
 C         0.235323         0.000947        -0.318255
 C        -0.617549         0.214746        -1.441982
 C        -1.818178        -0.654873        -0.944640
 C        -1.971936        -0.220376         0.500901
 C        -0.529558        -0.935788         0.610152
 O        -0.017496        -1.176779         1.973411
 C        -1.155394        -1.986711        -0.393055
 O        -2.232863        -2.829347        -0.022087
 H         2.152831         0.166167         0.837634
 H         2.245516         0.161509        -0.883125
 H         1.663968         1.676778        -0.194562
 H        -0.656111         0.804087        -2.340026
 H        -2.733979        -0.935124        -1.552094
 H        -2.042754         0.829308         0.691351
 H        -2.750744        -0.619642         1.154452
 H         0.936855        -1.058167         2.050463
 H        -0.358517        -2.491837        -1.057709
 H        -2.136320        -3.032258         0.997815
