19
Iteration:  3973charge 0 multiplicity 1
 C         1.502969         0.640550         0.005005
 C         0.204631         0.054788        -0.267105
 C        -0.797310         0.579142        -1.068684
 C        -1.905645        -0.384926        -0.724226
 C        -1.958652        -0.409258         0.826918
 C        -0.543669        -1.068998         0.566663
 O         0.202490        -1.722271         1.513492
 C        -1.268197        -1.783800        -0.649782
 O        -2.076737        -2.793867        -0.157415
 H         1.464651         1.707497        -0.241717
 H         1.803907         0.587082         1.081855
 H         2.391014         0.213323        -0.535916
 H        -0.690867         1.084437        -1.985616
 H        -2.918326        -0.248258        -1.203295
 H        -1.949285         0.559188         1.377125
 H        -2.810886        -0.990262         1.215523
 H         1.227149        -1.810470         1.269754
 H        -0.627991        -2.153792        -1.468672
 H        -1.684981        -3.085517         0.672137
