19
Iteration:  2370charge 0 multiplicity 1
 C         1.521222         0.676647        -0.069530
 C         0.055503         0.235468         0.072184
 C        -1.138042         0.880201        -0.145007
 C        -2.157096        -0.191041        -0.004108
 C        -1.717251        -0.820754         1.372056
 C        -0.448066        -1.261304         0.464821
 O         0.523883        -2.219456         0.714702
 C        -1.369786        -1.408677        -0.822476
 O        -1.973794        -2.665177        -0.919811
 H         1.780850         1.636611         0.532286
 H         2.234240        -0.031625         0.279751
 H         1.828719         0.966016        -1.111961
 H        -1.307400         1.806495        -0.771642
 H        -3.257332         0.035489        -0.135788
 H        -1.361996        -0.151582         2.185675
 H        -2.467793        -1.546357         1.723290
 H         0.624437        -2.801658        -0.146821
 H        -1.071991        -0.914526        -1.757113
 H        -1.722204        -3.042359        -1.802177
