19
Iteration:  1348charge 0 multiplicity 1
 C         1.592275         0.579023        -0.061863
 C         0.124689         0.199363        -0.114386
 C        -1.084116         0.777093        -0.588021
 C        -2.169381        -0.200334        -0.304686
 C        -1.766236        -0.698995         1.229729
 C        -0.502031        -1.104501         0.434730
 O         0.350626        -1.922826         1.212159
 C        -1.332025        -1.507159        -0.796783
 O        -1.820113        -2.852517        -0.709402
 H         1.876054         1.575505        -0.055499
 H         2.097050        -0.013365         0.772171
 H         2.083825         0.101153        -0.879156
 H        -1.349136         1.655212        -1.279429
 H        -3.164538        -0.112208        -0.794194
 H        -1.643677         0.211187         1.801600
 H        -2.294607        -1.569246         1.639603
 H         0.046267        -2.820853         1.329693
 H        -0.682704        -1.312170        -1.684663
 H        -2.768748        -2.706431        -0.349902
