19
Iteration:  3463
 C         1.542718         0.605233         0.064492
 C         0.063816         0.264068        -0.117759
 C        -1.007483         0.786154        -0.821951
 C        -2.051843        -0.265356        -0.410734
 C        -1.853087        -0.603387         1.087162
 C        -0.469256        -1.051064         0.587938
 O         0.403519        -2.050771         1.126916
 C        -1.210606        -1.601034        -0.700864
 O        -2.033582        -2.825623        -0.525146
 H         1.874339        -0.069559         0.867647
 H         2.061521         0.404062        -0.869263
 H         1.557979         1.645054         0.441471
 H        -1.319671         1.644871        -1.321959
 H        -3.055704        -0.326661        -0.854697
 H        -1.840256         0.217601         1.763950
 H        -2.422964        -1.506923         1.427543
 H         0.793132        -1.534805         1.873272
 H        -0.654706        -1.621152        -1.718241
 H        -2.045347        -3.313621        -1.365204
