19
Iteration:  3136charge 0 multiplicity 1
 C         1.539547         0.625431        -0.018058
 C         0.103265         0.266372        -0.035337
 C        -1.038568         0.829023        -0.408144
 C        -2.204867        -0.146151        -0.219134
 C        -1.753494        -0.706522         1.241429
 C        -0.435314        -1.086500         0.453843
 O         0.342409        -2.046097         0.934732
 C        -1.333063        -1.516120        -0.805839
 O        -1.787348        -2.917440        -0.707036
 H         1.603271         1.525912        -0.558195
 H         1.809773         0.747792         1.017481
 H         2.193667        -0.119219        -0.468399
 H        -1.103288         1.818356        -0.778106
 H        -3.157691         0.264988        -0.474025
 H        -1.661291        -0.040249         2.072527
 H        -2.417260        -1.607213         1.484474
 H        -0.076919        -2.967283         0.692036
 H        -0.930557        -1.219297        -1.710453
 H        -2.620339        -3.041702        -1.297061
