19
Iteration:   868charge 0 multiplicity 1
 C         1.598388         0.603268        -0.102345
 C         0.056684         0.267978        -0.040483
 C        -1.149254         0.895714        -0.405554
 C        -2.226282        -0.184990        -0.108364
 C        -1.751552        -0.728828         1.294709
 C        -0.462160        -1.147509         0.510087
 O         0.352776        -2.233881         0.810788
 C        -1.321336        -1.389410        -0.805929
 O        -1.690038        -2.750746        -0.683317
 H         1.858485         0.711553        -1.184693
 H         1.849904         1.450568         0.525560
 H         1.969287        -0.337965         0.267928
 H        -1.292238         1.780131        -0.998890
 H        -3.331739        -0.105611        -0.288527
 H        -1.661452         0.109026         2.131317
 H        -2.426506        -1.501953         1.692253
 H        -0.140002        -3.045535         0.927509
 H        -0.868236        -1.110931        -1.766166
 H        -2.442293        -2.856435        -1.324244
