19
Iteration:   347charge 0 multiplicity 1
 C         1.537851         0.705553         0.080233
 C         0.118782         0.258699         0.191550
 C        -1.110970         0.875795        -0.218089
 C        -2.177794        -0.210558        -0.019955
 C        -1.654868        -0.933342         1.264455
 C        -0.412602        -1.165071         0.361991
 O         0.447028        -2.297009         0.450148
 C        -1.501854        -1.325715        -0.809109
 O        -2.004229        -2.690725        -0.818092
 H         2.053805         1.001765         0.956954
 H         2.249421        -0.009504        -0.426342
 H         1.664116         1.713373        -0.420558
 H        -1.143577         1.967339        -0.605895
 H        -3.188565         0.076812        -0.267430
 H        -1.409489        -0.344505         2.224709
 H        -2.358126        -1.753944         1.530046
 H         1.173619        -1.993158         0.945818
 H        -1.293549        -1.050517        -1.864295
 H        -1.385434        -3.144467        -0.291805
