19
Iteration:  2667charge 0 multiplicity 1
 C         1.492489         0.871818         0.160461
 C         0.107068         0.233102         0.133204
 C        -1.039673         0.885558        -0.203390
 C        -2.086539        -0.146424        -0.056489
 C        -1.672458        -0.918983         1.257619
 C        -0.418332        -1.291888         0.372753
 O         0.492530        -2.251827         0.503421
 C        -1.393740        -1.430090        -0.783544
 O        -2.141676        -2.740184        -0.877432
 H         1.545683         1.795189         0.664554
 H         2.232120         0.164485         0.583907
 H         1.900651         0.995258        -0.894509
 H        -1.212626         1.975962        -0.338011
 H        -3.162800         0.039090        -0.012337
 H        -1.536221        -0.298473         2.230323
 H        -2.245225        -1.871429         1.439297
 H         1.005137        -2.123284         1.293422
 H        -1.014920        -1.105131        -1.723543
 H        -1.957376        -3.013597        -1.717576
