19
Iteration:  4504charge 0 multiplicity 1
 C         1.521829         0.590785        -0.066448
 C         0.261044        -0.062751        -0.310471
 C        -0.671382         0.370038        -1.264742
 C        -1.913661        -0.451205        -0.842474
 C        -1.983000        -0.207152         0.636496
 C        -0.547595        -0.973880         0.597596
 O        -0.050346        -1.410703         1.768636
 C        -1.234805        -1.840497        -0.576439
 O        -1.958289        -2.953987         0.014812
 H         1.417956         1.197602         0.848328
 H         2.477706         0.100293         0.065829
 H         1.727603         1.139916        -0.978633
 H        -0.387363         0.651504        -2.245876
 H        -2.765174        -0.409711        -1.497656
 H        -1.912518         0.901977         0.940853
 H        -2.687082        -0.630874         1.252080
 H         0.743085        -1.930838         1.704924
 H        -0.817833        -2.240325        -1.474221
 H        -1.821812        -2.911342         0.921771
