19
Iteration:   856
 C         1.490516         0.563220        -0.087610
 C         0.072486         0.243815         0.044682
 C        -1.064325         0.818393        -0.436918
 C        -2.163045        -0.202328        -0.125262
 C        -1.824856        -0.731053         1.250572
 C        -0.492367        -1.129204         0.426768
 O         0.420280        -2.199507         0.748556
 C        -1.371261        -1.359902        -0.729557
 O        -1.690426        -2.721114        -0.625008
 H         1.905987         0.612870        -1.082181
 H         1.829943         1.627349         0.273112
 H         2.183216        -0.049772         0.457207
 H        -1.202098         1.874852        -0.604434
 H        -3.158501         0.097943        -0.544431
 H        -1.711207         0.082958         2.095173
 H        -2.397547        -1.656406         1.510011
 H        -0.281661        -2.950657         0.675656
 H        -0.963229        -1.200438        -1.726654
 H        -2.595140        -3.012006        -1.015740
