19
Iteration:  2654
 C         1.478844         0.762676         0.073701
 C         0.122270         0.250060         0.191440
 C        -1.063147         0.871297        -0.042606
 C        -2.139281        -0.235678        -0.053195
 C        -1.730704        -0.939417         1.228820
 C        -0.412211        -1.164114         0.375657
 O         0.532181        -2.270932         0.473476
 C        -1.369116        -1.393623        -0.880860
 O        -2.073551        -2.655794        -0.792902
 H         1.425912         1.810765         0.436748
 H         2.128623         0.190327         0.758249
 H         1.838790         0.841788        -1.015316
 H        -1.206568         1.915973        -0.556711
 H        -3.040934         0.114520        -0.502276
 H        -1.605966        -0.178007         2.124834
 H        -2.344903        -1.806345         1.461477
 H         0.853381        -2.336017         1.449552
 H        -0.875986        -1.326961        -1.884292
 H        -2.111348        -3.085875        -1.760273
