19
Iteration:     1
 C         1.479494         0.698391         0.132398
 C         0.062759         0.244317         0.145048
 C        -1.102654         0.881285        -0.028290
 C        -2.145769        -0.236555         0.054241
 C        -1.616182        -1.058465         1.277099
 C        -0.390284        -1.217857         0.315328
 O         0.552395        -2.243727         0.405659
 C        -1.433448        -1.304052        -0.851903
 O        -2.116394        -2.527005        -0.948227
 H         1.974780         0.507303         1.093627
 H         2.060079         0.157135        -0.624329
 H         1.553310         1.769347        -0.075889
 H        -1.292501         1.927476        -0.226200
 H        -3.199550         0.001404        -0.070715
 H        -1.454408        -0.515679         2.211367
 H        -2.157816        -1.993245         1.429869
 H         0.860858        -2.304437         1.315461
 H        -1.087176        -0.946116        -1.830506
 H        -1.447250        -3.221624        -0.967578
