19
Iteration:  3734
 C         1.526841         0.594111         0.087304
 C         0.140902         0.124212        -0.197345
 C        -0.925046         0.704513        -0.899240
 C        -2.057998        -0.296722        -0.573408
 C        -1.955430        -0.358641         0.947654
 C        -0.509894        -1.049038         0.512801
 O         0.475428        -1.764792         1.307070
 C        -1.281606        -1.744083        -0.674892
 O        -1.983031        -2.964129        -0.354988
 H         2.042359         0.810676        -0.845929
 H         1.457626         1.391072         0.794703
 H         1.902638        -0.354260         0.585284
 H        -0.590946         1.139084        -1.842874
 H        -3.034854        -0.092094        -1.152368
 H        -1.815479         0.546222         1.567209
 H        -2.601940        -1.051714         1.525378
 H         0.050303        -2.512142         1.817329
 H        -0.614715        -1.972572        -1.557266
 H        -2.879056        -2.796599        -0.423412
