19
Iteration:  4291charge 0 multiplicity 1
 C         1.506289         0.553497         0.003868
 C         0.165171         0.101154        -0.262518
 C        -0.719742         0.404824        -1.247579
 C        -1.959121        -0.425009        -0.891697
 C        -1.990662        -0.207071         0.805438
 C        -0.605326        -0.920800         0.577152
 O         0.185476        -1.618535         1.646559
 C        -1.223541        -1.885735        -0.524794
 O        -2.021361        -2.899663        -0.144045
 H         1.616436         1.306429         0.790033
 H         2.121462        -0.279648         0.433239
 H         1.934354         0.982520        -0.957135
 H        -0.587975         1.257944        -1.871935
 H        -2.856996        -0.419466        -1.520702
 H        -1.891994         0.765678         1.287191
 H        -2.765026        -0.800163         1.381502
 H         1.027677        -1.324960         1.776554
 H        -0.505139        -2.213353        -1.387012
 H        -1.769757        -3.299937         0.652824
