19
Iteration:   665
 C         1.437031         0.535922        -0.151808
 C         0.083027         0.239444         0.088069
 C        -1.126345         0.870138        -0.258206
 C        -2.187298        -0.210832        -0.003229
 C        -1.687744        -0.775891         1.338206
 C        -0.406849        -1.106431         0.512384
 O         0.490772        -2.212576         0.774590
 C        -1.451887        -1.407286        -0.714598
 O        -1.933096        -2.679547        -1.040050
 H         1.840742         1.190739         0.571133
 H         2.068927        -0.402700        -0.192482
 H         1.726454         1.084619        -1.062996
 H        -1.268983         1.832170        -0.645633
 H        -3.231558        -0.006243        -0.306494
 H        -1.595957        -0.033409         2.118784
 H        -2.246091        -1.700074         1.484862
 H         1.186573        -2.069756         1.409565
 H        -1.040974        -0.944931        -1.614704
 H        -1.248695        -3.286379        -1.127875
