19
Iteration:  2456charge 0 multiplicity 1
 C         1.488817         0.614709         0.209327
 C         0.012137         0.224721        -0.021235
 C        -1.105327         0.844241        -0.313658
 C        -2.147793        -0.198221         0.032792
 C        -1.608338        -0.938663         1.335226
 C        -0.394477        -1.272723         0.395003
 O         0.593081        -2.137922         0.520077
 C        -1.408057        -1.370025        -0.826919
 O        -2.075127        -2.623287        -0.869376
 H         1.709412         1.652844        -0.200541
 H         1.545456         0.776955         1.269115
 H         2.179162        -0.204234         0.000561
 H        -1.274008         1.843764        -0.717905
 H        -3.220017         0.121567         0.071990
 H        -1.450076        -0.095327         2.104173
 H        -2.136596        -1.929490         1.631139
 H         1.069368        -1.880117         1.284264
 H        -1.158877        -1.106406        -1.852332
 H        -2.552350        -2.721519        -1.622151
