19
Iteration:  3115charge 0 multiplicity 1
 C         1.502373         0.698493        -0.054592
 C         0.025520         0.231915         0.058938
 C        -1.011981         0.891900        -0.493567
 C        -2.145200        -0.126839        -0.209570
 C        -1.797342        -0.794901         1.193747
 C        -0.461649        -1.225474         0.479909
 O         0.453007        -2.185106         0.933453
 C        -1.339912        -1.441204        -0.830247
 O        -1.818085        -2.740139        -0.636036
 H         1.591178         1.239078        -0.933621
 H         1.657641         1.362902         0.786606
 H         2.154384        -0.175773         0.014034
 H        -1.098928         1.683552        -1.194345
 H        -3.144395         0.028433        -0.522728
 H        -1.683429        -0.174406         2.046100
 H        -2.570079        -1.634111         1.424400
 H        -0.044147        -2.984525         1.191147
 H        -0.875758        -1.266892        -1.846065
 H        -2.355281        -2.946934        -1.327648
