19
Iteration:  2467charge 0 multiplicity 1
 C         1.519466         0.617558         0.235624
 C         0.101903         0.243298         0.009394
 C        -1.163711         0.774451        -0.315881
 C        -2.203606        -0.266328         0.083463
 C        -1.657338        -0.903389         1.349565
 C        -0.448229        -1.125879         0.351185
 O         0.577860        -2.198723         0.496820
 C        -1.413497        -1.369616        -0.865900
 O        -2.015970        -2.595813        -0.843725
 H         2.087841         1.410188        -0.342009
 H         1.576739         0.882453         1.269202
 H         2.215194        -0.218702         0.096382
 H        -1.395521         1.641825        -0.914906
 H        -3.293722        -0.124039        -0.115979
 H        -1.261182        -0.266800         2.227862
 H        -2.418943        -1.648739         1.781690
 H         1.411552        -1.848618         0.974657
 H        -1.087058        -1.006341        -1.847066
 H        -2.605705        -2.621290        -1.639400
