19
Iteration:   184charge 0 multiplicity 1
 C         1.446396         0.618588        -0.181503
 C         0.087763         0.166036         0.024168
 C        -1.148952         0.907446        -0.018348
 C        -2.243970        -0.197188         0.143898
 C        -1.663090        -0.880418         1.382266
 C        -0.471176        -1.197852         0.418562
 O         0.434848        -2.264565         0.682230
 C        -1.431798        -1.229985        -0.807530
 O        -1.654770        -2.635660        -1.025229
 H         1.527926         1.135869        -1.155326
 H         1.683442         1.268291         0.788086
 H         2.092367        -0.409146        -0.179855
 H        -1.184829         1.930801        -0.354172
 H        -3.246719         0.110016        -0.095047
 H        -1.469606        -0.237790         2.301794
 H        -2.063110        -1.914063         1.685026
 H        -0.037197        -3.123490         0.390898
 H        -1.112773        -0.679303        -1.747375
 H        -2.519297        -2.783817        -1.564747
