19
Iteration:  4399charge 0 multiplicity 1
 C         1.640831         0.432506        -0.110445
 C         0.209718         0.164733        -0.295703
 C        -0.808004         0.376360        -1.191965
 C        -2.011591        -0.452553        -0.800824
 C        -1.965071        -0.240982         0.751516
 C        -0.550989        -0.865738         0.565259
 O        -0.053208        -1.407908         1.758332
 C        -1.186976        -1.799356        -0.530873
 O        -1.831932        -3.024439        -0.109810
 H         2.192881        -0.236161        -0.801714
 H         1.843416         1.506642        -0.167545
 H         1.914999         0.050192         0.884371
 H        -0.694942         0.758527        -2.166019
 H        -2.948710        -0.364034        -1.387091
 H        -1.982783         0.796235         1.087151
 H        -2.560077        -0.925267         1.379518
 H         0.692696        -1.909889         1.613596
 H        -0.473799        -2.259809        -1.252772
 H        -2.724028        -2.733985        -0.053842
