19
Iteration:  4450
 C         1.606280         0.542078        -0.097649
 C         0.136332         0.083471        -0.268504
 C        -0.786329         0.354661        -1.186015
 C        -1.900617        -0.563105        -0.868717
 C        -1.942962        -0.214080         0.705519
 C        -0.588967        -0.887439         0.693080
 O         0.115926        -1.338443         1.799919
 C        -1.137456        -1.939312        -0.564957
 O        -2.048257        -2.967255        -0.132177
 H         1.793105         1.467335        -0.714147
 H         1.710160         0.773336         0.949830
 H         2.338132        -0.198445        -0.357560
 H        -0.600576         0.798268        -2.139561
 H        -2.795514        -0.647414        -1.467631
 H        -1.878037         0.940847         0.854113
 H        -2.639711        -0.610651         1.378203
 H         0.769403        -1.983449         1.457738
 H        -0.504287        -2.455259        -1.232555
 H        -2.879380        -2.568128        -0.205190
