19
Iteration:  2312
 C         1.466471         0.541029        -0.098844
 C         0.019450         0.168009         0.052691
 C        -1.066358         0.881068        -0.137690
 C        -2.210865        -0.190055        -0.016548
 C        -1.776056        -0.982704         1.247401
 C        -0.452726        -1.155626         0.441071
 O         0.627451        -2.089175         0.719326
 C        -1.341930        -1.365345        -0.829646
 O        -1.898298        -2.586666        -0.858394
 H         1.867172         1.001292         0.863941
 H         2.175923        -0.290607        -0.374561
 H         1.530336         1.308571        -0.883796
 H        -1.236669         1.815777        -0.616891
 H        -3.228886         0.184863        -0.095050
 H        -1.690767        -0.433980         2.228655
 H        -2.373544        -1.975494         1.281406
 H         0.337880        -2.723433         1.317478
 H        -0.986027        -1.003073        -1.803350
 H        -2.665337        -2.689636        -1.474148
