19
Iteration:  2953
 C         1.482257         0.755360         0.020369
 C         0.043346         0.295067         0.024696
 C        -1.088504         0.870093        -0.361625
 C        -2.144405        -0.142365        -0.151209
 C        -1.785264        -0.811311         1.250487
 C        -0.441986        -1.163035         0.439485
 O         0.395382        -2.381600         0.786343
 C        -1.332576        -1.429524        -0.793590
 O        -1.904637        -2.689079        -0.832951
 H         1.878713         1.031635         1.059422
 H         2.136416        -0.204023        -0.151921
 H         1.825471         1.516297        -0.772417
 H        -1.234226         1.912975        -0.735205
 H        -3.178411         0.100471        -0.297342
 H        -1.624105        -0.181610         2.075835
 H        -2.404258        -1.743089         1.388101
 H         1.218187        -2.173796         1.134257
 H        -0.846863        -1.267551        -1.785249
 H        -1.387140        -3.224440        -0.200841
