19
Iteration:  4427
 C         1.596297         0.456566        -0.086636
 C         0.179703         0.073777        -0.292472
 C        -0.696737         0.347431        -1.248053
 C        -1.919478        -0.452488        -0.822568
 C        -2.052087        -0.342100         0.707078
 C        -0.569957        -0.962771         0.600213
 O         0.112053        -1.298302         1.796899
 C        -1.252274        -1.804961        -0.536322
 O        -1.926071        -2.920586        -0.089418
 H         2.026721         0.666090        -1.081155
 H         1.652317         1.329645         0.595935
 H         2.178935        -0.368891         0.335017
 H        -0.640468         1.177385        -2.004418
 H        -2.853434        -0.574086        -1.329287
 H        -2.377144         0.642813         1.201337
 H        -2.676960        -1.128769         1.074432
 H         0.870099        -1.844166         1.589372
 H        -0.635555        -2.300819        -1.260141
 H        -2.907942        -2.735989        -0.138120
