19
Iteration:  1293charge 0 multiplicity 1
 C         1.558254         0.724419         0.053419
 C         0.109888         0.166811        -0.012414
 C        -0.933134         0.779246        -0.597187
 C        -2.070214        -0.284585        -0.361954
 C        -1.896121        -0.671861         1.132333
 C        -0.426611        -1.109968         0.472354
 O         0.558297        -2.002431         0.948248
 C        -1.370911        -1.590599        -0.750044
 O        -2.143432        -2.743161        -0.526405
 H         1.682352         1.503745        -0.641323
 H         1.621684         1.247964         1.089281
 H         2.346959         0.008053        -0.046954
 H        -0.939089         1.581282        -1.369138
 H        -3.126409        -0.249836        -0.682076
 H        -1.949262         0.156068         1.864400
 H        -2.584816        -1.381250         1.531174
 H         0.175398        -2.829969         1.154043
 H        -0.848946        -1.584428        -1.761496
 H        -1.629028        -3.545370        -0.995214
