19
Iteration:  2023
 C         1.590793         0.707280         0.108505
 C         0.047442         0.213810         0.015159
 C        -1.036315         0.735405        -0.505260
 C        -2.154460        -0.275729        -0.128362
 C        -1.746256        -0.785494         1.313005
 C        -0.413356        -1.137570         0.429460
 O         0.586421        -2.086928         0.682708
 C        -1.455357        -1.402923        -0.777284
 O        -2.112439        -2.715671        -0.773438
 H         1.808233         1.327165         1.015322
 H         2.213262        -0.189931         0.221489
 H         1.946520         1.196570        -0.838603
 H        -1.037221         1.786266        -0.847234
 H        -3.220447         0.050145        -0.203717
 H        -1.717928        -0.026582         2.125647
 H        -2.337366        -1.572375         1.815339
 H         0.052621        -2.745931         1.241928
 H        -0.965176        -1.207910        -1.731585
 H        -1.279764        -3.298614        -0.700660
