19
Iteration:    45
 C         1.459575         0.779921         0.260507
 C         0.029457         0.213901         0.193295
 C        -1.039683         0.916426        -0.074648
 C        -2.166287        -0.133441        -0.016087
 C        -1.625591        -0.998527         1.219434
 C        -0.377044        -1.211582         0.221642
 O         0.581730        -2.322808         0.289107
 C        -1.435591        -1.296354        -0.922963
 O        -2.084719        -2.626608        -0.668408
 H         2.104572         0.006526         0.617558
 H         1.737930         1.139813        -0.715877
 H         1.385510         1.577551         0.935224
 H        -1.055104         1.900119        -0.427700
 H        -3.231672         0.045329        -0.132004
 H        -1.295588        -0.612402         2.180672
 H        -2.260762        -1.844477         1.266922
 H         0.537933        -2.691719         1.165718
 H        -1.234942        -1.191768        -1.976264
 H        -1.737793        -3.248361        -1.311495
