19
Iteration:  3332charge 0 multiplicity 1
 C         1.620143         0.563119        -0.031084
 C         0.117178         0.257529        -0.092564
 C        -1.065408         0.759725        -0.582777
 C        -2.244415        -0.266802        -0.309437
 C        -1.824700        -0.738551         1.148155
 C        -0.445790        -1.098411         0.500801
 O         0.456431        -1.929091         1.096310
 C        -1.265850        -1.525905        -0.733689
 O        -1.925011        -2.768271        -0.604028
 H         2.114408         0.548461        -1.005876
 H         1.961120         1.601883         0.255108
 H         2.178132        -0.121398         0.660337
 H        -1.438056         1.725334        -0.969233
 H        -3.153659        -0.134569        -0.880916
 H        -2.009655        -0.060880         1.917860
 H        -2.450384        -1.619275         1.432439
 H         0.159267        -2.911245         0.836819
 H        -0.663176        -1.513542        -1.713551
 H        -2.846058        -2.626243        -1.066259
