19
Iteration:  1897charge 0 multiplicity 1
 C         1.572760         0.480767        -0.044727
 C         0.065370         0.298916        -0.124905
 C        -1.129200         0.802162        -0.416606
 C        -2.195106        -0.243152        -0.151123
 C        -1.717051        -0.747904         1.265390
 C        -0.413624        -1.044322         0.499041
 O         0.366224        -2.089231         0.941506
 C        -1.361930        -1.352435        -0.791547
 O        -1.784764        -2.774224        -0.707960
 H         2.131769        -0.321239        -0.482332
 H         1.914768         1.457120        -0.504651
 H         1.990012         0.546683         0.954545
 H        -1.399505         1.627678        -1.085448
 H        -3.284865        -0.123378        -0.318339
 H        -1.690269         0.050987         2.009811
 H        -2.304057        -1.611733         1.431481
 H        -0.282413        -2.781655         0.813872
 H        -0.899328        -1.268173        -1.790576
 H        -2.285083        -2.950843        -1.459835
