19
Iteration:   543charge 0 multiplicity 1
 C         1.467654         0.677785         0.222285
 C         0.075302         0.303759        -0.054738
 C        -1.129160         0.906816        -0.377866
 C        -2.190820        -0.120400        -0.036436
 C        -1.586352        -0.703653         1.270335
 C        -0.436730        -1.171042         0.314941
 O         0.431246        -2.262957         0.643894
 C        -1.472144        -1.441436        -0.816021
 O        -1.819528        -2.842158        -0.676795
 H         1.989206         1.518756        -0.265220
 H         1.620490         0.752475         1.312777
 H         2.134142        -0.141637        -0.126088
 H        -1.213453         1.915358        -0.781265
 H        -3.250946         0.154233        -0.214435
 H        -1.222934        -0.002535         2.068573
 H        -2.068279        -1.556578         1.683299
 H         0.145540        -2.945013         0.044824
 H        -1.323569        -1.235450        -1.874250
 H        -2.285691        -3.070124        -1.469917
