19
Iteration:   956charge 0 multiplicity 1
 C         1.502073         0.635912         0.021135
 C         0.089680         0.279302         0.071492
 C        -1.126024         0.788119        -0.471283
 C        -2.068583        -0.295560        -0.337129
 C        -1.700257        -0.918076         1.211054
 C        -0.368303        -1.223939         0.425779
 O         0.633022        -1.929816         1.014226
 C        -1.330858        -1.513902        -0.860331
 O        -2.278694        -2.590472        -0.761574
 H         1.934007         1.529723         0.501208
 H         2.059924        -0.266611         0.424218
 H         1.955476         0.921041        -0.939724
 H        -1.296852         1.806771        -0.919845
 H        -3.141660        -0.226420        -0.555208
 H        -1.532696        -0.113716         2.038823
 H        -2.278041        -1.783725         1.587684
 H         0.444346        -2.296216         1.889606
 H        -0.877582        -1.618402        -1.850078
 H        -1.873856        -3.505191        -0.828449
