19
Iteration:   655
 C         1.457542         0.560318        -0.138956
 C        -0.016318         0.241523         0.034791
 C        -1.155341         0.845522        -0.271145
 C        -2.184447        -0.181160         0.003150
 C        -1.636340        -0.842068         1.309158
 C        -0.395865        -1.188175         0.456948
 O         0.549611        -2.237782         0.878176
 C        -1.383481        -1.368204        -0.790408
 O        -2.014059        -2.605330        -1.036914
 H         1.773191         1.235332         0.615218
 H         2.149161        -0.327047         0.085745
 H         1.650519         1.015703        -1.137037
 H        -1.204758         1.737763        -0.813888
 H        -3.254112         0.044647        -0.046984
 H        -1.497577        -0.160235         2.169032
 H        -2.194323        -1.710237         1.786422
 H         1.113173        -1.800471         1.567343
 H        -1.031540        -1.035482        -1.751168
 H        -1.269727        -3.192700        -1.064620
