19
Iteration:  3800
 C         1.563183         0.686281        -0.098519
 C         0.211508         0.106661        -0.190506
 C        -0.812959         0.665328        -0.998499
 C        -2.029704        -0.297184        -0.665348
 C        -1.849626        -0.377555         0.997711
 C        -0.554738        -1.029910         0.578946
 O         0.157261        -1.839568         1.569117
 C        -1.296068        -1.719629        -0.624635
 O        -1.971701        -2.986030        -0.442043
 H         1.585239         1.596734         0.503543
 H         2.279777         0.034975         0.389246
 H         1.815451         0.940954        -1.180514
 H        -0.956097         1.586549        -1.522705
 H        -3.041509        -0.121749        -1.181943
 H        -1.815634         0.569968         1.615263
 H        -2.485021        -1.121656         1.480043
 H         0.563462        -2.434163         0.964497
 H        -0.638819        -1.927576        -1.514503
 H        -2.021655        -3.192453         0.565019
