19
Iteration:  4204charge 0 multiplicity 1
 C         1.626274         0.648146        -0.098379
 C         0.215916         0.102067        -0.177002
 C        -0.689263         0.414898        -1.137139
 C        -1.952163        -0.457957        -0.787214
 C        -1.961708        -0.398272         0.802343
 C        -0.585633        -0.963860         0.587614
 O         0.184533        -1.541880         1.563066
 C        -1.244053        -1.800056        -0.550051
 O        -2.089555        -2.851610        -0.103984
 H         1.895546         0.896818        -1.088960
 H         1.612075         1.508269         0.574926
 H         2.298269        -0.147200         0.275446
 H        -0.609206         1.034175        -2.066351
 H        -2.838393        -0.437963        -1.409628
 H        -2.054427         0.578016         1.337542
 H        -2.624447        -1.113054         1.302816
 H        -0.447603        -1.729014         2.300502
 H        -0.598053        -2.149550        -1.367123
 H        -2.029084        -3.540647        -0.733706
