19
Iteration:  1022charge 0 multiplicity 1
 C         1.481512         0.754499         0.142158
 C         0.088706         0.250008        -0.007449
 C        -1.074850         0.733949        -0.524557
 C        -2.147287        -0.260895        -0.274867
 C        -1.719272        -0.599355         1.162561
 C        -0.412957        -1.085885         0.461131
 O         0.328447        -2.317984         0.711077
 C        -1.302581        -1.477440        -0.774849
 O        -1.971495        -2.742289        -0.570101
 H         1.990538         0.354494         1.066523
 H         2.073399         0.481918        -0.793570
 H         1.706043         1.844330         0.181962
 H        -1.010197         1.600930        -1.176794
 H        -3.107143         0.186609        -0.462623
 H        -1.621101         0.341786         1.797797
 H        -2.346895        -1.457061         1.557964
 H         0.864982        -2.271491         1.548830
 H        -0.848666        -1.387709        -1.792698
 H        -1.343134        -3.384219        -0.277041
