19
Iteration:  2629
 C         1.458067         0.603136        -0.002837
 C         0.050163         0.300098         0.193510
 C        -1.138368         0.907187        -0.114778
 C        -2.159746        -0.221302        -0.019776
 C        -1.704944        -1.082372         1.157056
 C        -0.459185        -1.217162         0.352662
 O         0.596936        -2.214329         0.559601
 C        -1.321694        -1.235720        -0.851885
 O        -1.970614        -2.556785        -0.737750
 H         1.724834         1.704112        -0.257336
 H         1.953692         0.218095         0.917253
 H         1.786280         0.027251        -0.886240
 H        -1.403024         1.924207        -0.123842
 H        -3.163861        -0.046161        -0.433133
 H        -1.681321        -0.505050         2.053075
 H        -2.288239        -2.007047         1.227523
 H         0.419524        -2.556898         1.529966
 H        -0.892880        -1.068388        -1.904262
 H        -2.121104        -2.860203        -1.720510
