19
Iteration:  1626
 C         1.562820         0.493359        -0.227669
 C         0.089838         0.242416         0.114682
 C        -1.015894         0.850245        -0.336905
 C        -2.098419        -0.220325        -0.379050
 C        -1.819120        -0.805765         1.080171
 C        -0.478002        -1.176469         0.440744
 O         0.451611        -1.893924         1.257557
 C        -1.236375        -1.592121        -0.830866
 O        -2.124829        -2.715650        -0.760841
 H         2.183522        -0.481419        -0.021944
 H         1.753890         0.653366        -1.241182
 H         1.912637         1.371478         0.321969
 H        -1.061549         1.825529        -0.704170
 H        -3.167872        -0.124672        -0.619785
 H        -2.026022         0.132367         1.716344
 H        -2.297133        -1.723767         1.417540
 H         0.822845        -1.200435         1.915824
 H        -0.703465        -1.560655        -1.837767
 H        -1.671358        -3.497778        -1.094150
