19
Iteration:  4235charge 0 multiplicity 1
 C         1.492625         0.651269        -0.020294
 C         0.176271         0.170806        -0.325285
 C        -0.784521         0.451210        -1.232182
 C        -1.875546        -0.476056        -0.829207
 C        -1.883456        -0.280503         0.717313
 C        -0.546243        -1.068718         0.561699
 O         0.177310        -1.730607         1.696525
 C        -1.210009        -1.840683        -0.490727
 O        -2.093391        -2.784997        -0.085392
 H         1.602681         1.573433        -0.633324
 H         1.775636         0.707521         1.055968
 H         2.259895        -0.055567        -0.400496
 H        -0.995463         1.482831        -1.638740
 H        -2.820265        -0.644638        -1.283287
 H        -1.749253         0.819860         1.022789
 H        -2.638707        -0.826615         1.189233
 H         0.247452        -1.097151         2.470033
 H        -0.574217        -2.254407        -1.385032
 H        -1.847925        -3.610135        -0.600698
