19
Iteration:  2651
 C         1.504329         0.744153         0.060028
 C         0.105498         0.224374         0.201389
 C        -1.092922         0.893958        -0.029583
 C        -2.148214        -0.251056        -0.093076
 C        -1.746733        -0.952349         1.249490
 C        -0.382354        -1.146795         0.367136
 O         0.540387        -2.271071         0.486277
 C        -1.374790        -1.392903        -0.886420
 O        -2.048607        -2.620392        -0.783243
 H         1.398059         1.858159         0.364473
 H         2.119407         0.161203         0.760960
 H         1.785545         0.753926        -0.998637
 H        -1.191384         1.855483        -0.532301
 H        -3.116526         0.111115        -0.484147
 H        -1.592383        -0.265338         2.062461
 H        -2.374745        -1.813091         1.443497
 H         0.790550        -2.389198         1.354749
 H        -0.885110        -1.280494        -1.927914
 H        -2.138368        -3.032184        -1.601777
