19
Iteration:   842charge 0 multiplicity 1
 C         1.509522         0.608406        -0.045212
 C         0.072347         0.189244         0.071647
 C        -0.981367         0.861611        -0.318347
 C        -2.152108        -0.145234        -0.228571
 C        -1.816090        -0.765274         1.219901
 C        -0.410610        -1.132831         0.445139
 O         0.447528        -2.094350         0.721202
 C        -1.412907        -1.432031        -0.830967
 O        -1.815993        -2.793433        -0.563487
 H         1.718767         0.216125        -1.008870
 H         1.370035         1.760420         0.121072
 H         2.136050         0.081299         0.682384
 H        -1.116784         1.853811        -0.794697
 H        -3.173425         0.146350        -0.454899
 H        -1.764901        -0.143895         2.098174
 H        -2.389876        -1.694918         1.508450
 H         0.186664        -2.926034         0.386610
 H        -0.992471        -1.260806        -1.837127
 H        -2.729760        -2.899897        -0.859149
