19
Iteration:  4281charge 0 multiplicity 1
 C         1.626862         0.643309         0.073597
 C         0.172493         0.065642        -0.261920
 C        -0.696580         0.304941        -1.268605
 C        -2.020447        -0.439134        -0.821188
 C        -2.024215        -0.232936         0.792574
 C        -0.584349        -0.949352         0.605139
 O         0.187328        -1.620070         1.599303
 C        -1.282585        -1.760588        -0.564173
 O        -2.049411        -2.916106        -0.132643
 H         1.586365         1.583076         0.556110
 H         2.258180        -0.148455         0.533471
 H         2.264806         0.730557        -0.850871
 H        -0.693330         1.042960        -2.028303
 H        -2.942839        -0.362344        -1.432047
 H        -2.029942         0.774550         1.133930
 H        -2.788848        -0.945083         1.256230
 H         0.972769        -1.101684         1.694666
 H        -0.550383        -2.059270        -1.384965
 H        -1.553703        -3.385251         0.536831
