19
Iteration:  3345charge 0 multiplicity 1
 C         1.547546         0.576824        -0.096896
 C         0.048438         0.218527        -0.035227
 C        -1.023872         0.804577        -0.601237
 C        -2.061402        -0.260343        -0.333082
 C        -1.846663        -0.674272         1.192450
 C        -0.519909        -1.084150         0.540574
 O         0.433021        -1.945751         1.114697
 C        -1.267920        -1.521234        -0.743946
 O        -1.914102        -2.850715        -0.674716
 H         1.911302         0.782011        -1.099310
 H         1.542780         1.434125         0.619895
 H         2.102822        -0.274897         0.319114
 H        -0.988298         1.697970        -1.101954
 H        -3.141794        -0.088674        -0.525003
 H        -1.641322         0.085337         1.951264
 H        -2.320874        -1.612104         1.463696
 H         0.314733        -2.788190         0.811703
 H        -0.732973        -1.382397        -1.667139
 H        -2.818008        -2.693084        -0.752181
