19
Iteration:   784charge 0 multiplicity 1
 C         1.414780         0.711922         0.121339
 C         0.065392         0.147091        -0.094421
 C        -1.038751         0.776232        -0.474455
 C        -2.126727        -0.235852        -0.035851
 C        -1.528583        -0.853716         1.308045
 C        -0.366136        -1.278596         0.371651
 O         0.703801        -2.018532         0.810594
 C        -1.425613        -1.499280        -0.802111
 O        -2.300881        -2.579006        -0.794142
 H         2.357486         0.120621         0.366512
 H         1.830475         1.375884        -0.623363
 H         1.384990         1.402694         1.031142
 H        -1.386452         1.537982        -1.154226
 H        -3.202862        -0.055388        -0.165490
 H        -1.265461        -0.123071         2.031128
 H        -2.197384        -1.617025         1.618264
 H         0.367313        -2.663689         1.510106
 H        -1.162541        -1.413064        -1.888439
 H        -2.063666        -3.081506        -1.601866
