19
Iteration:  3918charge 0 multiplicity 1
 C         1.535192         0.556199        -0.122880
 C         0.156260         0.107903        -0.303015
 C        -0.873541         0.508757        -1.041728
 C        -2.058248        -0.389330        -0.644098
 C        -1.854239        -0.305228         0.970931
 C        -0.508166        -0.951815         0.621005
 O         0.041572        -1.742504         1.625279
 C        -1.159469        -1.726164        -0.610634
 O        -1.932608        -2.852236        -0.402735
 H         2.152189         0.384965        -1.046250
 H         1.726436         1.650941         0.059889
 H         2.059256         0.092618         0.752377
 H        -0.878225         1.172037        -1.839532
 H        -3.105977        -0.381032        -1.101596
 H        -1.727016         0.608966         1.524203
 H        -2.550876        -0.985210         1.541361
 H         0.881571        -2.244721         1.378214
 H        -0.482127        -1.860223        -1.520456
 H        -1.647976        -3.386830         0.398270
