19
Iteration:  4209
 C         1.594515         0.646437        -0.106111
 C         0.239777         0.104619        -0.212609
 C        -0.750870         0.435345        -1.081757
 C        -1.948487        -0.467942        -0.811677
 C        -1.965628        -0.363385         0.804689
 C        -0.563756        -0.962938         0.569214
 O         0.181387        -1.580123         1.587525
 C        -1.174984        -1.808128        -0.590159
 O        -2.127570        -2.851033        -0.083241
 H         1.938296         1.071351        -1.115091
 H         1.603384         1.401267         0.716446
 H         2.307871        -0.102900         0.257015
 H        -0.450931         0.955042        -1.971379
 H        -2.877627        -0.490369        -1.429365
 H        -2.024346         0.683399         1.098442
 H        -2.614747        -1.074605         1.401653
 H        -0.336891        -1.618343         2.391960
 H        -0.496276        -2.224037        -1.350892
 H        -2.043267        -3.568295        -0.773591
