19
Iteration:  4416
 C         1.650133         0.422411        -0.103380
 C         0.168298         0.063120        -0.329197
 C        -0.741061         0.438600        -1.285500
 C        -1.952177        -0.401661        -0.817919
 C        -2.021188        -0.384572         0.759250
 C        -0.597751        -0.850435         0.660437
 O         0.053061        -1.341074         1.791371
 C        -1.184186        -1.851911        -0.589501
 O        -1.926708        -2.973813        -0.053294
 H         2.302872         0.464959        -0.971625
 H         1.653698         1.450639         0.329741
 H         2.092209        -0.185667         0.694721
 H        -0.580256         0.926680        -2.297293
 H        -2.829257        -0.320191        -1.452312
 H        -2.285384         0.554141         1.339382
 H        -2.645674        -1.194861         1.097057
 H         0.786881        -1.808620         1.520346
 H        -0.511757        -2.056035        -1.427034
 H        -2.836403        -2.875085        -0.013357
