19
Iteration:  4264
 C         1.597140         0.629169         0.044511
 C         0.268282         0.096046        -0.289970
 C        -0.727872         0.326259        -1.154166
 C        -1.959461        -0.419382        -0.729546
 C        -1.982657        -0.284664         0.760867
 C        -0.575427        -0.895841         0.546137
 O         0.127997        -1.608085         1.538418
 C        -1.284323        -1.868283        -0.563503
 O        -2.072930        -2.859142        -0.114146
 H         1.341059         1.758561         0.198756
 H         2.034098         0.378553         1.022915
 H         2.379443         0.596527        -0.711642
 H        -0.568863         0.446375        -2.251081
 H        -2.894262        -0.320811        -1.303100
 H        -2.105815         0.743501         1.229163
 H        -2.618748        -1.041619         1.204600
 H         0.793764        -1.203024         1.971737
 H        -0.719454        -2.154158        -1.443476
 H        -1.524941        -3.590454         0.068107
