19
Iteration:  4027
 C         1.557816         0.604911         0.005056
 C         0.183390        -0.003065        -0.312075
 C        -0.775364         0.485227        -1.111844
 C        -2.044701        -0.266327        -0.712964
 C        -1.966208        -0.294374         0.811094
 C        -0.485333        -1.009095         0.595847
 O         0.211946        -1.608674         1.602422
 C        -1.267170        -1.799458        -0.663398
 O        -2.057040        -2.897332        -0.149135
 H         1.402019         1.111065         0.959239
 H         2.314079        -0.162731         0.237934
 H         1.883001         1.328134        -0.719068
 H        -0.602223         0.970375        -2.052996
 H        -3.009377        -0.143417        -1.270776
 H        -1.964720         0.715287         1.345153
 H        -2.540637        -1.058122         1.343313
 H         0.887970        -2.332658         1.242373
 H        -0.587599        -2.048475        -1.411447
 H        -1.663182        -3.753315        -0.117180
