19
Iteration:  1347
 C         1.591147         0.579898        -0.054185
 C         0.127017         0.199916        -0.126119
 C        -1.080676         0.782812        -0.587769
 C        -2.176042        -0.202460        -0.297751
 C        -1.759890        -0.699903         1.228096
 C        -0.500267        -1.103588         0.422338
 O         0.347470        -1.930093         1.211944
 C        -1.325573        -1.501942        -0.793703
 O        -1.819627        -2.857256        -0.707708
 H         1.866982         1.570528        -0.056341
 H         2.072974         0.015622         0.776678
 H         2.065732         0.089809        -0.873220
 H        -1.348894         1.649858        -1.290363
 H        -3.164011        -0.129510        -0.803579
 H        -1.662826         0.218769         1.837483
 H        -2.282024        -1.527635         1.662198
 H         0.042219        -2.797478         1.365132
 H        -0.686170        -1.299075        -1.673822
 H        -2.811246        -2.713595        -0.374356
