19
Iteration:  2041charge 0 multiplicity 1
 C         1.456376         0.546276         0.015592
 C         0.038208         0.304747         0.052414
 C        -1.074680         0.883125        -0.351145
 C        -2.151330        -0.188986        -0.137310
 C        -1.705238        -0.812344         1.219384
 C        -0.437499        -1.162342         0.436038
 O         0.527761        -2.112073         0.718649
 C        -1.330120        -1.455828        -0.815408
 O        -2.023997        -2.657731        -0.675875
 H         1.731469         1.451112         0.659098
 H         2.135713        -0.187892         0.369197
 H         1.920156         0.799887        -0.938961
 H        -1.391321         1.664110        -1.131084
 H        -3.197937        -0.057211        -0.430467
 H        -1.620980        -0.238769         2.119974
 H        -2.220436        -1.752379         1.370369
 H         0.257159        -2.932090         1.264432
 H        -0.806194        -1.317507        -1.814733
 H        -1.379414        -3.344409        -1.064167
