19
Iteration:  4400
 C         1.636270         0.430423        -0.109477
 C         0.218664         0.164010        -0.301874
 C        -0.806325         0.379552        -1.188156
 C        -2.013869        -0.449985        -0.807333
 C        -1.968208        -0.248380         0.753355
 C        -0.549092        -0.858370         0.563989
 O        -0.052015        -1.405020         1.762516
 C        -1.189582        -1.797689        -0.533012
 O        -1.834281        -3.029389        -0.104987
 H         2.200857        -0.211262        -0.813474
 H         1.833581         1.522953        -0.149473
 H         1.921136         0.023742         0.891413
 H        -0.693066         0.731336        -2.187542
 H        -2.956112        -0.332492        -1.398410
 H        -1.973850         0.750707         1.103198
 H        -2.583679        -0.948895         1.392272
 H         0.721259        -1.916314         1.590538
 H        -0.447646        -2.267794        -1.252194
 H        -2.743731        -2.691488        -0.070773
