19
Iteration:  3682
 C         1.625304         0.588129        -0.033314
 C         0.097996         0.190248        -0.241279
 C        -0.983580         0.760865        -0.832744
 C        -2.014062        -0.298438        -0.567712
 C        -1.833170        -0.535559         0.958627
 C        -0.507334        -1.085305         0.527251
 O         0.320404        -1.862462         1.431251
 C        -1.295429        -1.635013        -0.729732
 O        -1.961661        -2.865475        -0.349487
 H         2.339465        -0.232015        -0.057889
 H         1.662478         1.271451        -0.842379
 H         1.593757         1.145508         0.917948
 H        -1.074500         1.335883        -1.725674
 H        -3.075189        -0.167867        -0.947438
 H        -1.716989         0.359113         1.706501
 H        -2.426331        -1.362615         1.305308
 H        -0.184928        -2.262552         2.130561
 H        -0.634563        -1.799521        -1.519136
 H        -2.256438        -3.321338        -1.107113
