19
Iteration:   719charge 0 multiplicity 1
 C         1.472416         0.643406        -0.076945
 C        -0.009941         0.279487         0.044333
 C        -1.076137         0.929403        -0.256015
 C        -2.119876        -0.156895        -0.114828
 C        -1.657949        -0.968635         1.210046
 C        -0.397594        -1.152429         0.382289
 O         0.512747        -2.269486         0.694986
 C        -1.364828        -1.391695        -0.858963
 O        -2.019968        -2.632695        -0.678497
 H         2.040143         0.199591         0.836388
 H         1.806378         0.228071        -1.062037
 H         1.451588         1.774282        -0.173561
 H        -1.228247         2.013470        -0.406881
 H        -3.203990        -0.062873        -0.324833
 H        -1.689944        -0.319628         2.064905
 H        -2.297594        -1.840974         1.347684
 H         0.576755        -2.306678         1.632153
 H        -0.935413        -1.096115        -1.856087
 H        -1.517381        -3.213283        -0.168607
