19
Iteration:  2396
 C         1.458543         0.773630        -0.015376
 C         0.037781         0.221613         0.117815
 C        -1.035159         0.839464        -0.245018
 C        -2.154912        -0.188486        -0.070999
 C        -1.667808        -1.027769         1.241756
 C        -0.310208        -1.190270         0.407214
 O         0.542151        -2.202831         0.728707
 C        -1.330184        -1.361128        -0.810160
 O        -2.135794        -2.599821        -0.773132
 H         1.537286         1.783887         0.286232
 H         2.216486         0.187998         0.607391
 H         1.850423         0.853569        -1.048098
 H        -1.077014         1.865678        -0.461844
 H        -3.174907        -0.059673        -0.337022
 H        -1.639355        -0.632255         2.247212
 H        -2.147372        -1.967809         1.354389
 H         0.238123        -3.049159         0.198337
 H        -1.164143        -0.884653        -1.827343
 H        -2.076174        -2.924232        -1.682200
