19
Iteration:  2475
 C         1.556269         0.624129         0.263769
 C         0.043336         0.271453         0.020532
 C        -1.145818         0.802518        -0.276462
 C        -2.190503        -0.266116         0.005087
 C        -1.646214        -0.852658         1.344334
 C        -0.377091        -1.177467         0.331120
 O         0.531796        -2.222271         0.489927
 C        -1.474616        -1.340532        -0.792777
 O        -1.988954        -2.638071        -0.842942
 H         1.777542         1.313564        -0.609846
 H         1.782957         1.012526         1.304158
 H         2.034621        -0.337201         0.147563
 H        -1.441738         1.768304        -0.846504
 H        -3.262055        -0.115014        -0.294009
 H        -1.520083        -0.231335         2.236853
 H        -2.084710        -1.872262         1.650911
 H         1.384216        -1.772877         0.660938
 H        -0.900780        -0.941724        -1.686466
 H        -2.600358        -2.666605        -1.549939
