19
Iteration:    65
 C         1.464744         0.748748         0.325186
 C         0.074256         0.193622        -0.009007
 C        -1.055826         0.832096        -0.262495
 C        -2.097458        -0.256674         0.045474
 C        -1.568054        -0.993645         1.342351
 C        -0.367732        -1.232233         0.306203
 O         0.603424        -2.192543         0.366095
 C        -1.517474        -1.348724        -0.777065
 O        -2.183261        -2.545166        -0.875381
 H         2.087284        -0.070643         0.393682
 H         1.646548         1.487192        -0.477037
 H         1.436749         1.360800         1.300274
 H        -1.303791         1.863672        -0.298749
 H        -3.109556         0.114005        -0.027838
 H        -1.279264        -0.330403         2.184176
 H        -2.129494        -1.923037         1.629651
 H         0.529505        -2.795915         1.087904
 H        -1.115423        -1.031224        -1.759103
 H        -1.636720        -3.055945        -1.432983
