19
Iteration:  3996
 C         1.578480         0.615535         0.092442
 C         0.134918         0.211318        -0.213478
 C        -0.866570         0.475411        -1.179933
 C        -2.016076        -0.499818        -0.785199
 C        -1.898263        -0.357281         0.791282
 C        -0.473957        -0.988488         0.514768
 O         0.248700        -1.742186         1.525450
 C        -1.239652        -1.778490        -0.588489
 O        -2.133567        -2.764700        -0.158132
 H         1.826011         1.585011         0.512692
 H         1.989868        -0.099638         0.836188
 H         2.309295         0.430481        -0.789911
 H        -1.055691         1.453861        -1.667334
 H        -2.930810        -0.527553        -1.394086
 H        -1.976610         0.727122         1.146774
 H        -2.451525        -0.922694         1.458136
 H         1.054488        -2.092458         1.348287
 H        -0.482162        -2.116367        -1.361220
 H        -1.728209        -3.325408         0.597151
