19
Iteration:  2206charge 0 multiplicity 1
 C         1.504893         0.667806         0.212698
 C         0.027841         0.304714         0.089289
 C        -1.070793         0.899552        -0.392938
 C        -2.180647        -0.200663        -0.170692
 C        -1.625122        -0.779759         1.298117
 C        -0.390882        -1.170928         0.383429
 O         0.590280        -2.168241         0.577404
 C        -1.367055        -1.454486        -0.810926
 O        -2.084376        -2.759791        -0.659994
 H         2.079844        -0.232725        -0.192691
 H         1.720440         1.463088        -0.418230
 H         1.773686         0.772779         1.258509
 H        -1.304671         1.918255        -0.569640
 H        -3.260859        -0.132794        -0.472862
 H        -1.648749         0.029562         1.971521
 H        -2.290829        -1.528864         1.668476
 H         0.263331        -2.934584         0.174572
 H        -0.812699        -1.386682        -1.787250
 H        -2.346882        -3.177920        -1.495861
