19
Iteration:  4140charge 0 multiplicity 1
 C         1.561134         0.338326        -0.122285
 C         0.124542         0.230753        -0.227279
 C        -0.828219         0.503154        -1.186975
 C        -2.034549        -0.382157        -0.728373
 C        -1.939596        -0.239716         0.834645
 C        -0.559694        -0.889039         0.611182
 O         0.048550        -1.553822         1.709280
 C        -1.181777        -1.822103        -0.637294
 O        -1.843366        -2.992610        -0.156828
 H         2.079281        -0.548208        -0.435668
 H         2.228819         1.113886        -0.492464
 H         1.819848         0.437218         0.984011
 H        -0.960425         1.449952        -1.837014
 H        -2.917501        -0.263527        -1.365045
 H        -1.788507         0.786909         1.199076
 H        -2.553897        -0.794437         1.609586
 H         0.930507        -1.714247         1.462474
 H        -0.533245        -1.980990        -1.427233
 H        -2.261634        -3.473725        -0.903812
