19
Iteration:   270
 C         1.498709         0.775911         0.135066
 C         0.114110         0.255672         0.098037
 C        -1.053137         0.882647        -0.141906
 C        -2.070260        -0.276090        -0.069746
 C        -1.609126        -1.073311         1.192081
 C        -0.362583        -1.213413         0.375380
 O         0.760172        -2.086227         0.583910
 C        -1.490153        -1.451951        -0.888938
 O        -2.356248        -2.581734        -0.764092
 H         1.532093         1.770110         0.491576
 H         2.215282         0.305761         0.805399
 H         2.092613         0.799249        -0.812310
 H        -1.349739         1.790768        -0.711278
 H        -3.139182        -0.105780        -0.167535
 H        -1.668738        -0.484293         2.140535
 H        -2.191408        -2.029082         1.189222
 H         0.387271        -2.698465         1.279242
 H        -1.268127        -1.257603        -1.956987
 H        -2.359720        -3.058269        -1.656529
