19
Iteration:  1377charge 0 multiplicity 1
 C         1.487083         0.529681        -0.143391
 C         0.045566         0.231882         0.063676
 C        -0.957317         0.819500        -0.533277
 C        -2.093485        -0.201518        -0.388664
 C        -1.972068        -0.654574         1.114224
 C        -0.449528        -1.118477         0.565204
 O         0.515108        -1.929544         1.212788
 C        -1.258147        -1.530273        -0.706011
 O        -1.986333        -2.835624        -0.747680
 H         1.764312         1.614889        -0.101953
 H         2.168516        -0.085212         0.385073
 H         1.668057         0.236205        -1.238409
 H        -0.960616         1.599574        -1.334667
 H        -3.041766        -0.224043        -0.941999
 H        -2.132104         0.264415         1.770461
 H        -2.499310        -1.563651         1.258261
 H         0.572424        -2.807034         0.680073
 H        -0.619337        -1.499788        -1.587780
 H        -1.965071        -3.066214         0.146788
