19
Iteration:  2724
 C         1.463706         0.735485         0.231140
 C         0.018813         0.246388         0.034706
 C        -1.073496         0.912456        -0.259638
 C        -2.103293        -0.229456        -0.149510
 C        -1.601694        -0.985344         1.301454
 C        -0.393129        -1.265857         0.337926
 O         0.651955        -2.170560         0.728153
 C        -1.351276        -1.411756        -0.868388
 O        -2.313403        -2.585138        -0.922312
 H         1.648464         0.767332         1.305565
 H         2.116566        -0.070208        -0.123594
 H         1.633005         1.660612        -0.264125
 H        -1.335699         1.921534        -0.217018
 H        -3.196119        -0.112831        -0.386971
 H        -1.418914        -0.307437         2.120624
 H        -1.962723        -2.017035         1.687024
 H         1.366149        -1.982973         0.090119
 H        -0.980042        -1.215303        -1.841759
 H        -1.773218        -3.439426        -0.685319
