19
Iteration:  3036charge 0 multiplicity 1
 C         1.540022         0.642800         0.121485
 C         0.084355         0.166384        -0.080665
 C        -1.065807         0.725953        -0.492743
 C        -2.126962        -0.289770        -0.122891
 C        -1.698986        -0.865224         1.288164
 C        -0.469676        -1.219238         0.406754
 O         0.663706        -1.893552         0.960548
 C        -1.376432        -1.458787        -0.864644
 O        -2.211042        -2.598157        -0.852950
 H         2.286788        -0.161840         0.148732
 H         1.869091         1.454664        -0.504948
 H         1.552850         1.012017         1.159156
 H        -1.350085         1.642959        -1.142948
 H        -3.236690        -0.177967        -0.350705
 H        -1.468003        -0.106282         2.133299
 H        -2.282452        -1.728138         1.625010
 H         0.318133        -2.819960         1.239570
 H        -0.828806        -1.247867        -1.780242
 H        -1.703444        -3.281309        -1.196751
