19
Iteration:   402charge 0 multiplicity 1
 C         1.493012         0.609346        -0.125654
 C         0.055237         0.250751         0.181072
 C        -1.170072         0.866638        -0.137267
 C        -2.163040        -0.292997         0.017870
 C        -1.626375        -0.890159         1.305529
 C        -0.415771        -1.160045         0.383949
 O         0.561588        -2.219854         0.670257
 C        -1.367898        -1.342695        -0.853606
 O        -2.041650        -2.570784        -0.962172
 H         1.963529        -0.276646         0.221727
 H         1.547800         0.780117        -1.212355
 H         1.848275         1.517139         0.427969
 H        -1.337847         1.809822        -0.569704
 H        -3.190661        -0.006854        -0.130726
 H        -1.496517        -0.111884         2.146535
 H        -2.254899        -1.714429         1.734000
 H         0.223714        -2.439676         1.547976
 H        -0.865484        -1.011250        -1.760984
 H        -1.378145        -3.251285        -0.886542
