19
Iteration:  1375charge 0 multiplicity 1
 C         1.469158         0.515484        -0.133138
 C         0.079452         0.227024         0.065470
 C        -0.951828         0.823819        -0.549669
 C        -2.112208        -0.217450        -0.368305
 C        -1.953312        -0.646344         1.112345
 C        -0.443031        -1.085628         0.557535
 O         0.505689        -1.932925         1.209697
 C        -1.267024        -1.532552        -0.717996
 O        -1.978713        -2.843006        -0.755584
 H         1.722413         1.658019        -0.080858
 H         2.172378        -0.079281         0.386039
 H         1.668555         0.216583        -1.234726
 H        -0.977092         1.591018        -1.270211
 H        -3.049670        -0.253686        -0.894554
 H        -2.145935         0.244163         1.745216
 H        -2.534465        -1.599239         1.217454
 H         0.553739        -2.783705         0.752256
 H        -0.642294        -1.422870        -1.595770
 H        -2.011617        -3.027901         0.251310
