19
Iteration:  3361charge 0 multiplicity 1
 C         1.454358         0.612905        -0.086512
 C         0.073876         0.187711         0.009157
 C        -0.987067         0.793686        -0.561491
 C        -2.134295        -0.190610        -0.297050
 C        -1.778138        -0.579701         1.157521
 C        -0.429969        -1.159114         0.530055
 O         0.460187        -1.984431         1.185072
 C        -1.346396        -1.564101        -0.787115
 O        -1.872666        -2.863791        -0.752243
 H         1.376157         1.235275        -1.028709
 H         1.816518         1.153761         0.811773
 H         2.083408        -0.304020        -0.231046
 H        -1.039054         1.570946        -1.464515
 H        -3.048973         0.071377        -0.817067
 H        -1.832111         0.301563         1.878285
 H        -2.538097        -1.264731         1.625112
 H         0.169506        -2.892447         0.977817
 H        -0.805823        -1.468305        -1.778963
 H        -2.757904        -2.908531        -0.338707
