19
Iteration:  1335charge 0 multiplicity 1
 C         1.525433         0.555152        -0.007539
 C         0.081317         0.243716        -0.200637
 C        -1.028542         0.829397        -0.600826
 C        -2.164050        -0.298668        -0.241106
 C        -1.732479        -0.598711         1.169307
 C        -0.423987        -1.099369         0.457575
 O         0.364418        -1.993421         1.168625
 C        -1.304638        -1.513257        -0.782340
 O        -1.844668        -2.864599        -0.678550
 H         1.626926         1.598821        -0.125988
 H         1.805519         0.314190         1.000255
 H         2.149496         0.077354        -0.747490
 H        -1.060889         1.765805        -1.206414
 H        -3.209299        -0.074944        -0.538183
 H        -1.615103         0.136538         2.003828
 H        -2.243834        -1.436075         1.595125
 H        -0.374639        -2.575628         1.497975
 H        -0.989978        -1.442753        -1.825029
 H        -2.788588        -2.921239        -0.901461
