19
Iteration:  4411
 C         1.636998         0.407500        -0.099071
 C         0.180821         0.086109        -0.351040
 C        -0.742692         0.443811        -1.247840
 C        -1.990819        -0.416235        -0.831450
 C        -2.004165        -0.372658         0.768807
 C        -0.575473        -0.813666         0.634778
 O         0.013858        -1.359315         1.796817
 C        -1.171649        -1.852754        -0.586040
 O        -1.909824        -3.005807        -0.050877
 H         2.349093         0.425102        -0.954832
 H         1.795573         1.500531         0.143047
 H         2.018116        -0.117385         0.810818
 H        -0.641377         0.742301        -2.266033
 H        -2.848070        -0.169990        -1.513584
 H        -2.112982         0.526408         1.339867
 H        -2.732866        -1.134500         1.209816
 H         0.844605        -1.866561         1.424255
 H        -0.372537        -1.911461        -1.404594
 H        -2.928838        -2.795856        -0.021896
