19
Iteration:  4737
 C         1.596322         0.566531        -0.077406
 C         0.292414         0.058921        -0.326338
 C        -0.609020         0.144752        -1.357922
 C        -1.822185        -0.629346        -1.014592
 C        -1.960506        -0.119349         0.541131
 C        -0.629096        -0.824153         0.665192
 O        -0.028537        -1.231101         1.842481
 C        -1.224313        -1.958647        -0.404925
 O        -2.170481        -2.956921         0.060361
 H         1.695356         0.646957         1.034576
 H         2.373618        -0.112711        -0.409386
 H         1.798219         1.570061        -0.495427
 H        -0.377647         0.482358        -2.318803
 H        -2.750581        -0.506127        -1.594266
 H        -1.975094         0.878606         0.725000
 H        -2.853745        -0.436272         1.151784
 H         0.807207        -1.450674         1.540089
 H        -0.418106        -2.393040        -1.060489
 H        -1.819141        -3.391376         0.837213
