19
Iteration:  3635
 C         1.608933         0.562921        -0.195686
 C         0.130939         0.225602        -0.099441
 C        -0.976833         0.720377        -0.819832
 C        -2.058717        -0.269056        -0.557340
 C        -1.956870        -0.505544         1.041318
 C        -0.540761        -1.058687         0.658865
 O         0.368830        -1.894813         1.404649
 C        -1.218466        -1.651414        -0.626288
 O        -2.004599        -2.799397        -0.511912
 H         1.823891         0.468955         0.872030
 H         2.207215        -0.014503        -0.869010
 H         1.630989         1.645925        -0.426199
 H        -0.650596         1.361556        -1.706945
 H        -3.132771        -0.294111        -0.884328
 H        -2.004613         0.375820         1.640055
 H        -2.683997        -1.324179         1.395260
 H         0.267482        -2.886873         1.101540
 H        -0.630054        -1.755799        -1.507897
 H        -1.478415        -3.614105        -0.572421
