19
Iteration:  4375charge 0 multiplicity 1
 C         1.560490         0.438474        -0.162043
 C         0.165380         0.095018        -0.277099
 C        -0.764289         0.385622        -1.228845
 C        -1.961119        -0.484792        -0.825605
 C        -1.984344        -0.121854         0.760047
 C        -0.621643        -0.890004         0.673324
 O        -0.015026        -1.489917         1.843035
 C        -1.169281        -1.785352        -0.532005
 O        -1.798486        -3.024862        -0.223903
 H         2.101076        -0.519716        -0.287423
 H         1.713896         1.118488        -0.969561
 H         1.892275         0.852579         0.765214
 H        -0.829796         1.244296        -1.899095
 H        -2.888747        -0.469882        -1.369989
 H        -1.716331         0.970342         0.977386
 H        -2.807330        -0.465090         1.321422
 H         0.620694        -2.184470         1.431945
 H        -0.448926        -2.110350        -1.228495
 H        -2.290048        -2.709097         0.612826
