19
Iteration:  1740charge 0 multiplicity 1
 C         1.482344         0.709576         0.213661
 C         0.107599         0.238272         0.043798
 C        -0.989245         0.744490        -0.647706
 C        -2.116765        -0.275859        -0.348408
 C        -1.751474        -0.710174         1.140482
 C        -0.428017        -1.139669         0.392980
 O         0.509194        -2.148929         0.730372
 C        -1.376730        -1.528510        -0.752458
 O        -2.112054        -2.647686        -0.526648
 H         1.668426         1.692616         0.665351
 H         2.069322        -0.057586         0.871735
 H         1.989498         0.713637        -0.780192
 H        -1.169272         1.613184        -1.231520
 H        -3.102889        -0.042665        -0.724721
 H        -1.540760        -0.071352         1.995612
 H        -2.437457        -1.541204         1.492391
 H         0.322505        -2.177753         1.736489
 H        -0.808414        -1.415073        -1.731506
 H        -1.443133        -3.291527         0.050110
