19
Iteration:  2481charge 0 multiplicity 1
 C         1.522988         0.627634         0.247987
 C         0.037542         0.268701         0.055995
 C        -1.145978         0.866029        -0.265419
 C        -2.180658        -0.251062        -0.048292
 C        -1.629656        -0.866252         1.330960
 C        -0.369960        -1.207826         0.345711
 O         0.509434        -2.223648         0.490356
 C        -1.458217        -1.340171        -0.751270
 O        -1.979415        -2.668617        -0.845791
 H         1.781679         1.255816        -0.565413
 H         1.838004         1.128112         1.165115
 H         2.099559        -0.336589         0.121646
 H        -1.352385         1.838890        -0.616580
 H        -3.201634         0.001220        -0.246546
 H        -1.627301        -0.146529         2.165835
 H        -1.946546        -1.855537         1.516340
 H         1.355816        -1.845289         0.540822
 H        -1.072412        -1.074856        -1.740669
 H        -2.629111        -2.726866        -1.527638
