19
Iteration:  3853charge 0 multiplicity 1
 C         1.548324         0.408165        -0.114924
 C         0.064346         0.191119        -0.188642
 C        -0.846794         0.644740        -1.018838
 C        -2.028104        -0.352410        -0.643887
 C        -1.965953        -0.453462         0.972917
 C        -0.465435        -0.986219         0.519910
 O         0.162554        -1.709781         1.563212
 C        -1.212682        -1.674134        -0.611162
 O        -1.903660        -2.870858        -0.397233
 H         1.851843        -0.386442         0.586160
 H         1.981712         0.118079        -1.132844
 H         1.885444         1.443216         0.226740
 H        -0.902534         1.617972        -1.416164
 H        -3.005925        -0.367874        -1.252403
 H        -1.883722         0.345978         1.672583
 H        -2.776969        -1.108035         1.371360
 H         1.045681        -1.536079         1.449829
 H        -0.592719        -1.913057        -1.598995
 H        -1.838502        -3.117701         0.592410
