19
Iteration:  2708
 C         1.408211         0.720110         0.280322
 C         0.048842         0.188719        -0.024488
 C        -1.146765         0.791054        -0.255357
 C        -2.105006        -0.337383        -0.009822
 C        -1.472902        -0.933683         1.238664
 C        -0.341879        -1.201424         0.294706
 O         0.530841        -2.195709         0.715843
 C        -1.399864        -1.431034        -0.866076
 O        -2.237047        -2.460451        -0.924111
 H         1.458525         1.180135         1.296535
 H         2.298260         0.061015         0.214388
 H         1.721270         1.494399        -0.508378
 H        -1.320027         1.844199        -0.673367
 H        -3.159940        -0.163843        -0.091866
 H        -1.201020        -0.254279         2.106145
 H        -2.165499        -1.657519         1.567516
 H         1.515676        -1.902673         0.604775
 H        -1.014624        -1.164637        -1.927748
 H        -1.694167        -3.363110        -1.040078
