19
Iteration:  2933charge 0 multiplicity 1
 C         1.479209         0.629276         0.064463
 C         0.039867         0.227856         0.090573
 C        -1.097658         0.851615        -0.308006
 C        -2.158144        -0.278397        -0.120857
 C        -1.644020        -0.732199         1.297884
 C        -0.460450        -1.154461         0.448255
 O         0.338770        -2.230911         0.768618
 C        -1.360208        -1.396154        -0.828943
 O        -1.880064        -2.720256        -0.980330
 H         1.750765         1.529624         0.721124
 H         2.332173        -0.085994         0.305726
 H         1.720119         1.082240        -0.936423
 H        -1.140235         1.707653        -0.929779
 H        -3.163056        -0.143416        -0.422484
 H        -1.389985         0.142325         1.903442
 H        -2.201409        -1.502599         1.937471
 H         1.213929        -1.847168         1.044877
 H        -1.131960        -1.080788        -1.796583
 H        -1.881211        -3.230092        -0.051048
