19
Iteration:  1724charge 0 multiplicity 1
 C         1.517976         0.708340         0.143349
 C         0.146935         0.232875        -0.052965
 C        -0.997553         0.821855        -0.584405
 C        -2.078971        -0.240818        -0.326235
 C        -1.769543        -0.835184         1.122336
 C        -0.443493        -1.150553         0.402201
 O         0.396777        -2.163294         0.830022
 C        -1.312264        -1.447483        -0.878559
 O        -2.105368        -2.685502        -0.445719
 H         1.459700         1.560800         0.941043
 H         2.198412         0.066053         0.635728
 H         1.986419         1.107618        -0.767204
 H        -0.910537         1.843915        -1.033709
 H        -3.135854        -0.056689        -0.650857
 H        -1.945694         0.015827         1.853115
 H        -2.290225        -1.744524         1.366236
 H         0.822686        -2.073311         1.749701
 H        -1.034060        -1.668410        -1.904450
 H        -1.537852        -3.407322        -0.130868
