19
Iteration:  4836charge 0 multiplicity 1
 C         1.616985         0.372924        -0.052033
 C         0.217831        -0.078808        -0.377326
 C        -0.658123         0.171883        -1.448368
 C        -1.889292        -0.572726        -0.944847
 C        -2.032694        -0.082356         0.483144
 C        -0.653075        -0.742175         0.648146
 O        -0.211234        -1.185504         1.850757
 C        -1.122648        -1.905280        -0.382327
 O        -1.886195        -2.871370         0.230227
 H         2.403864        -0.195131        -0.696057
 H         1.818360         1.446371        -0.230320
 H         1.944422        -0.060305         0.954526
 H        -0.422398         0.454419        -2.550031
 H        -2.692330        -0.562541        -1.648520
 H        -1.991844         0.921591         0.445959
 H        -2.964292        -0.387543         1.067118
 H         0.594854        -1.615633         1.819101
 H        -0.290496        -2.172450        -1.148772
 H        -1.570849        -3.726118        -0.253693
