19
Iteration:  2842charge 0 multiplicity 1
 C         1.475740         0.720958        -0.053907
 C         0.061857         0.210048         0.035566
 C        -1.109186         0.880150        -0.157090
 C        -2.124803        -0.148807        -0.055970
 C        -1.749400        -0.899817         1.221078
 C        -0.421656        -1.236988         0.480913
 O         0.559094        -2.219722         0.903414
 C        -1.313369        -1.454760        -0.846347
 O        -2.061131        -2.646385        -1.076780
 H         1.837351         0.746011        -1.099574
 H         1.552675         1.720633         0.547189
 H         2.163994        -0.059041         0.482172
 H        -1.184239         1.729038        -0.824914
 H        -3.189730         0.099660        -0.307680
 H        -1.723280        -0.405979         2.202518
 H        -2.298330        -1.879675         1.386192
 H         1.484131        -1.756379         1.019380
 H        -0.834102        -1.080581        -1.803921
 H        -2.567804        -2.977503        -0.205798
