19
Iteration:  4011charge 0 multiplicity 1
 C         1.518860         0.570244         0.065553
 C         0.152177         0.187528        -0.245351
 C        -0.797270         0.517944        -1.140798
 C        -1.917603        -0.436489        -0.754958
 C        -1.852749        -0.318019         0.876898
 C        -0.552825        -0.978815         0.506631
 O         0.181842        -1.637136         1.510861
 C        -1.205688        -1.842121        -0.566842
 O        -2.134327        -2.866011        -0.144841
 H         1.533244         1.456279         0.750807
 H         2.036974        -0.273824         0.540804
 H         2.042360         0.888073        -0.886167
 H        -0.824501         1.304011        -1.945231
 H        -2.884533        -0.370490        -1.247659
 H        -1.753226         0.666031         1.276631
 H        -2.666102        -0.949885         1.322963
 H         0.834160        -2.178199         0.940081
 H        -0.626898        -2.209123        -1.525164
 H        -1.565222        -3.543026         0.172544
