19
Iteration:  3989
 C         1.592480         0.619343         0.085865
 C         0.147708         0.178435        -0.249629
 C        -0.882685         0.462769        -1.120220
 C        -2.052581        -0.462621        -0.771662
 C        -1.927144        -0.345356         0.778287
 C        -0.490489        -0.967813         0.506103
 O         0.263746        -1.782043         1.571206
 C        -1.162846        -1.796870        -0.630738
 O        -2.142489        -2.751258        -0.147247
 H         1.729193         1.701904         0.317954
 H         1.907049         0.048448         0.967676
 H         2.319530         0.346437        -0.732384
 H        -0.976812         1.388856        -1.787993
 H        -2.880376        -0.468164        -1.440780
 H        -1.973916         0.666416         1.159328
 H        -2.530949        -1.048465         1.394344
 H         1.164491        -1.945760         1.208447
 H        -0.595286        -2.089110        -1.597235
 H        -1.771769        -3.184509         0.696103
