19
Iteration:    75charge 0 multiplicity 1
 C         1.467856         0.746541         0.298403
 C         0.142068         0.236319        -0.049538
 C        -1.123817         0.789542        -0.209045
 C        -2.104455        -0.314980         0.095398
 C        -1.540144        -0.913937         1.409208
 C        -0.359185        -1.185410         0.315050
 O         0.660023        -2.165319         0.427799
 C        -1.475614        -1.367343        -0.829975
 O        -2.282366        -2.566977        -0.979516
 H         2.173661        -0.048254         0.215857
 H         2.003441         1.544666        -0.317301
 H         1.448234         0.999577         1.467733
 H        -1.364459         1.778843        -0.552396
 H        -3.167068        -0.132543        -0.046607
 H        -1.279932        -0.366183         2.349203
 H        -2.210151        -1.809756         1.679076
 H         0.277194        -2.801160         1.085027
 H        -1.258396        -0.999478        -1.862924
 H        -1.706768        -3.199655        -1.445499
