19
Iteration:  1210
 C         1.539104         0.687920         0.031844
 C         0.096861         0.207597        -0.099524
 C        -1.005535         0.773099        -0.615073
 C        -2.087785        -0.203072        -0.245390
 C        -1.755028        -0.589619         1.255156
 C        -0.442874        -1.110586         0.476286
 O         0.418913        -2.040258         1.045539
 C        -1.402057        -1.538876        -0.751747
 O        -1.964529        -2.899516        -0.705898
 H         2.081910         0.790846        -0.953090
 H         1.517912         1.582149         0.622974
 H         2.004192        -0.109796         0.669695
 H        -1.143981         1.508649        -1.440472
 H        -3.134373         0.085688        -0.408074
 H        -1.458496         0.158631         1.990183
 H        -2.295354        -1.541253         1.582431
 H         0.639046        -2.556267         0.197254
 H        -0.827585        -1.553870        -1.684523
 H        -2.922540        -2.914345        -0.499724
