19
Iteration:  2458charge 0 multiplicity 1
 C         1.497060         0.615201         0.207777
 C         0.021150         0.231332        -0.019050
 C        -1.113444         0.829542        -0.319705
 C        -2.164477        -0.208718         0.047458
 C        -1.622448        -0.940309         1.347247
 C        -0.404778        -1.252822         0.394409
 O         0.585970        -2.146063         0.509733
 C        -1.393791        -1.366782        -0.839260
 O        -2.062237        -2.612356        -0.863424
 H         1.795269         1.607267        -0.170423
 H         1.537245         0.817382         1.277288
 H         2.217943        -0.227684         0.033107
 H        -1.286563         1.750462        -0.749307
 H        -3.213442         0.081847         0.079366
 H        -1.404344        -0.099854         2.076349
 H        -2.181919        -1.850446         1.637691
 H         1.184260        -1.849509         1.303144
 H        -1.209792        -1.129120        -1.867831
 H        -2.608107        -2.727145        -1.680738
