19
Iteration:  4989
 C         1.625389         0.565435        -0.011939
 C         0.190083         0.022942        -0.346731
 C        -0.519734         0.005953        -1.471792
 C        -1.744145        -0.774568        -1.095885
 C        -2.076888        -0.127288         0.376536
 C        -0.689598        -0.774445         0.620192
 O        -0.147873        -1.263983         1.829143
 C        -1.109518        -1.905562        -0.324555
 O        -2.070285        -2.742744         0.292963
 H         1.739623         0.854387         1.068070
 H         2.278161        -0.279706        -0.240666
 H         1.912567         1.428413        -0.653591
 H        -0.162479         0.357780        -2.386707
 H        -2.588508        -1.015327        -1.702329
 H        -2.130647         0.935762         0.404496
 H        -3.030962        -0.721304         0.808512
 H         0.376849        -0.489356         2.147093
 H        -0.390008        -2.441376        -1.000522
 H        -1.601696        -3.523348         0.813794
