19
Iteration:  3454charge 0 multiplicity 1
 C         1.527166         0.559096         0.050613
 C         0.057197         0.243500        -0.132387
 C        -1.017683         0.804804        -0.726066
 C        -2.061149        -0.291160        -0.396849
 C        -1.871103        -0.632987         1.058093
 C        -0.488015        -1.077272         0.539977
 O         0.419718        -1.943177         1.113108
 C        -1.208477        -1.673525        -0.680397
 O        -2.051914        -2.786147        -0.552366
 H         1.935980         0.308598         1.060327
 H         2.304838         0.277069        -0.750362
 H         1.735376         1.675611         0.064136
 H        -0.975502         1.722244        -1.361776
 H        -3.142943        -0.101647        -0.704733
 H        -2.001999         0.210455         1.777953
 H        -2.413562        -1.475267         1.442552
 H         0.839187        -1.864934         2.010413
 H        -0.604599        -1.761922        -1.667462
 H        -1.785121        -3.376906        -1.269616
