19
Iteration:  2902
 C         1.552831         0.634198         0.040068
 C         0.051775         0.208883        -0.068880
 C        -1.120483         0.943669        -0.315777
 C        -2.152009        -0.152180        -0.063196
 C        -1.758595        -0.910405         1.276190
 C        -0.452092        -1.195781         0.471472
 O         0.570518        -2.165833         0.914816
 C        -1.410212        -1.427747        -0.782779
 O        -1.977585        -2.728509        -1.060558
 H         1.576022         1.719517         0.197829
 H         2.069893         0.215374         0.869935
 H         2.050976         0.302586        -0.834093
 H        -1.159037         1.880928        -0.783164
 H        -3.179983        -0.027605        -0.326194
 H        -1.588906        -0.276079         2.187717
 H        -2.327803        -1.855208         1.418171
 H         1.312768        -1.592451         1.197408
 H        -1.162525        -1.156072        -1.765468
 H        -2.571683        -2.982359        -0.404968
