19
Iteration:  4829
 C         1.642691         0.357295        -0.042321
 C         0.171317        -0.015613        -0.371052
 C        -0.628453         0.168114        -1.411069
 C        -1.910928        -0.648538        -0.980820
 C        -1.999831        -0.004984         0.506863
 C        -0.686566        -0.794811         0.590781
 O        -0.202483        -1.222301         1.850863
 C        -1.117635        -1.871012        -0.355704
 O        -1.911389        -2.898583         0.208634
 H         2.353777        -0.132322        -0.654235
 H         1.734090         1.409352        -0.373512
 H         1.996390         0.377936         0.983743
 H        -0.267259         0.428275        -2.443506
 H        -2.722350        -0.703039        -1.723394
 H        -1.943915         1.163357         0.518107
 H        -2.839038        -0.197436         1.125629
 H         0.739457        -1.526782         1.712595
 H        -0.392727        -2.232763        -1.058733
 H        -1.468161        -3.789481        -0.108928
