19
Iteration:  1861
 C         1.488923         0.516689        -0.230290
 C         0.068037         0.178288         0.091446
 C        -1.025533         0.852620        -0.296353
 C        -2.147576        -0.146953        -0.227623
 C        -1.841894        -0.715648         1.117265
 C        -0.483794        -1.125796         0.495901
 O         0.489035        -2.051929         1.067208
 C        -1.356756        -1.389861        -0.842741
 O        -1.802818        -2.832026        -0.709726
 H         1.638391         0.461550        -1.275992
 H         1.534425         1.625942         0.023582
 H         2.191287        -0.122092         0.323500
 H        -1.098069         1.745771        -0.910678
 H        -3.172943         0.140805        -0.547098
 H        -1.744171        -0.002208         1.964457
 H        -2.543985        -1.514226         1.451741
 H         0.090514        -2.906367         1.081637
 H        -0.745800        -1.108692        -1.737901
 H        -2.493778        -3.075386        -1.247758
