19
Iteration:  4493charge 0 multiplicity 1
 C         1.586408         0.648057        -0.090407
 C         0.252551        -0.071627        -0.343646
 C        -0.620777         0.280526        -1.259666
 C        -1.956984        -0.513150        -0.807598
 C        -1.956642        -0.207530         0.729656
 C        -0.593173        -0.918157         0.588956
 O        -0.013647        -1.379719         1.822461
 C        -1.278202        -1.881792        -0.590778
 O        -1.969640        -2.930980        -0.088227
 H         1.296021         1.566998         0.427012
 H         2.250360         0.031346         0.486873
 H         1.953911         1.067825        -1.023134
 H        -0.454851         0.676483        -2.231433
 H        -2.827424        -0.275343        -1.382081
 H        -1.953640         0.874410         1.087271
 H        -2.696662        -0.805492         1.150433
 H         0.681424        -2.139102         1.638735
 H        -0.579490        -2.186724        -1.347918
 H        -2.106373        -2.738566         0.881290
