19
Iteration:   733
 C         1.506961         0.731989        -0.024123
 C         0.114037         0.276033         0.009236
 C        -1.113813         0.881655        -0.229654
 C        -2.132559        -0.253565        -0.094920
 C        -1.676633        -0.871010         1.260239
 C        -0.417739        -1.242389         0.310194
 O         0.522541        -2.162040         0.700343
 C        -1.359632        -1.457777        -0.810997
 O        -2.139745        -2.642468        -0.781934
 H         2.131900         0.246162         0.643968
 H         2.128598         0.495844        -0.959675
 H         1.784928         1.731970         0.238765
 H        -1.350026         1.869135        -0.671289
 H        -3.144095         0.014173        -0.309300
 H        -1.244328        -0.293278         2.073846
 H        -2.234722        -1.835711         1.601981
 H         0.426570        -2.310190         1.699687
 H        -1.045960        -1.445917        -1.823767
 H        -1.592888        -3.244124        -0.121364
