19
Iteration:   180
 C         1.425124         0.606389        -0.169616
 C         0.072171         0.153088         0.078546
 C        -1.189956         0.907732         0.030173
 C        -2.215424        -0.186674         0.114577
 C        -1.644479        -0.856964         1.350874
 C        -0.450197        -1.247267         0.389754
 O         0.436140        -2.248837         0.670703
 C        -1.403258        -1.232366        -0.800229
 O        -1.683610        -2.633436        -1.014771
 H         1.511235         1.109319        -1.216915
 H         1.768914         1.302146         0.594633
 H         2.129831        -0.235907        -0.210809
 H        -1.116624         1.896404        -0.438286
 H        -3.255433         0.095155        -0.203818
 H        -1.449642        -0.282289         2.227341
 H        -2.069640        -1.846985         1.608245
 H        -0.047363        -3.084706         0.566214
 H        -1.118271        -0.718820        -1.716937
 H        -2.469650        -2.713234        -1.511483
