19
Iteration:   295charge 0 multiplicity 1
 C         1.440324         0.805678         0.235938
 C         0.072741         0.236034         0.006514
 C        -1.051231         0.767254        -0.322017
 C        -2.163742        -0.250397         0.021846
 C        -1.449491        -0.998038         1.280246
 C        -0.342988        -1.208403         0.301880
 O         0.681473        -2.212420         0.610921
 C        -1.540203        -1.434323        -0.836234
 O        -2.333770        -2.555675        -0.891940
 H         1.613035         1.647327         0.887178
 H         2.275135         0.140372         0.655457
 H         2.079567         1.087966        -0.681742
 H        -1.242993         1.888329        -0.402081
 H        -3.217196         0.034864        -0.015751
 H        -1.256490        -0.195921         2.074146
 H        -1.968962        -1.927883         1.570557
 H         0.753034        -1.946589         1.507576
 H        -1.325358        -1.092056        -1.893732
 H        -1.826428        -3.233118        -1.359029
