19
Iteration:  3414charge 0 multiplicity 1
 C         1.547741         0.608883        -0.045603
 C         0.080264         0.229433        -0.044419
 C        -0.996516         0.799047        -0.631628
 C        -2.134113        -0.271365        -0.386887
 C        -1.784597        -0.726404         1.078575
 C        -0.434317        -1.106706         0.525671
 O         0.480747        -1.936468         1.230516
 C        -1.340091        -1.617651        -0.855860
 O        -2.022983        -2.748730        -0.670083
 H         1.717683         1.432459         0.638037
 H         1.967237        -0.321955         0.255203
 H         1.772989         0.863028        -1.054023
 H        -1.073517         1.754743        -1.283508
 H        -3.210577        -0.076276        -0.533269
 H        -1.784553         0.124266         1.856081
 H        -2.526642        -1.467630         1.279254
 H        -0.071600        -2.171362         2.013826
 H        -0.706180        -1.651047        -1.690853
 H        -1.626347        -3.368182        -0.002928
