19
Iteration:  4703charge 0 multiplicity 1
 C         1.564002         0.495612        -0.064885
 C         0.222785        -0.050443        -0.387035
 C        -0.609628         0.166517        -1.398373
 C        -1.908078        -0.541895        -1.011641
 C        -1.992739        -0.151637         0.567200
 C        -0.623133        -0.796044         0.611679
 O        -0.105665        -1.334597         1.859548
 C        -1.187835        -1.851430        -0.477731
 O        -1.950773        -2.799656         0.199414
 H         1.365892         1.306417         0.693533
 H         2.053392        -0.218317         0.607043
 H         2.299550         0.761281        -0.846206
 H        -0.601648         0.511153        -2.433263
 H        -2.866046        -0.517511        -1.639003
 H        -1.900809         0.869380         0.742792
 H        -2.773652        -0.738959         1.068282
 H         0.477289        -2.054873         1.678760
 H        -0.409268        -2.320835        -1.162532
 H        -1.303887        -3.544430         0.438243
