19
Iteration:  4145charge 0 multiplicity 1
 C         1.550114         0.349186        -0.103700
 C         0.136773         0.210634        -0.221779
 C        -0.828975         0.475081        -1.184891
 C        -2.022475        -0.394923        -0.715688
 C        -1.910394        -0.197018         0.852942
 C        -0.592983        -0.911158         0.584218
 O         0.032884        -1.530579         1.675581
 C        -1.134894        -1.815087        -0.603287
 O        -1.865616        -2.981007        -0.160118
 H         2.102973        -0.558167        -0.570622
 H         2.164395         1.229206        -0.393442
 H         1.718988         0.217714         0.978493
 H        -1.177441         1.407606        -1.543791
 H        -2.956797        -0.421934        -1.327040
 H        -1.723686         0.877043         1.027189
 H        -2.579183        -0.693171         1.570788
 H         0.969111        -1.807781         1.352756
 H        -0.414071        -1.988026        -1.521451
 H        -2.118441        -3.534634        -0.956801
