19
Iteration:  2478
 C         1.548529         0.625788         0.264148
 C         0.032931         0.273383         0.034348
 C        -1.145248         0.835416        -0.271005
 C        -2.183767        -0.260847        -0.025798
 C        -1.637374        -0.854480         1.335876
 C        -0.364304        -1.201047         0.336663
 O         0.512902        -2.225215         0.488394
 C        -1.472502        -1.333568        -0.766326
 O        -1.978747        -2.653670        -0.840226
 H         1.745374         1.288322        -0.609277
 H         1.818005         1.057026         1.205134
 H         2.033460        -0.339060         0.142690
 H        -1.395974         1.762110        -0.726276
 H        -3.245650        -0.057889        -0.288554
 H        -1.586170        -0.144655         2.245849
 H        -1.995410        -1.922043         1.577107
 H         1.437040        -1.754819         0.599751
 H        -0.968820        -1.004795        -1.682050
 H        -2.688099        -2.710352        -1.616113
