19
Iteration:  4518
 C         1.576480         0.579351        -0.052556
 C         0.181262         0.054607        -0.318431
 C        -0.675540         0.311937        -1.287002
 C        -1.936314        -0.442591        -0.949630
 C        -1.910166        -0.174043         0.621770
 C        -0.610174        -0.928032         0.530022
 O        -0.070535        -1.492257         1.774174
 C        -1.206449        -1.899563        -0.501525
 O        -1.959818        -2.939242         0.070772
 H         1.726211         0.846159         1.022393
 H         2.225415        -0.242479        -0.300105
 H         1.726977         1.507807        -0.566937
 H        -0.630596         1.169388        -1.992198
 H        -2.856605        -0.363134        -1.615870
 H        -1.869490         0.891999         1.002486
 H        -2.738916        -0.755799         1.087389
 H         0.923347        -1.738865         1.606290
 H        -0.447025        -2.294103        -1.166355
 H        -1.581145        -3.001828         1.043586
