19
Iteration:  3483
 C         1.540052         0.706230         0.042901
 C         0.085019         0.160171        -0.053202
 C        -0.960338         0.682945        -0.735068
 C        -2.125819        -0.277860        -0.470443
 C        -1.822297        -0.548667         1.081720
 C        -0.463773        -1.123659         0.480924
 O         0.320471        -2.036643         1.162347
 C        -1.318633        -1.618794        -0.764054
 O        -1.897788        -2.789919        -0.479232
 H         2.168221        -0.141173         0.340922
 H         1.765646         1.217063        -0.861763
 H         1.601841         1.380332         0.965689
 H        -0.881205         1.468666        -1.400190
 H        -3.089109         0.009944        -0.853806
 H        -1.706826         0.334979         1.663208
 H        -2.419067        -1.391112         1.625567
 H         0.961545        -1.529001         1.831221
 H        -0.903200        -1.653889        -1.796295
 H        -2.432902        -3.109917        -1.304024
