19
Iteration:  3905
 C         1.559729         0.508997        -0.155778
 C         0.098292         0.144718        -0.161155
 C        -0.868499         0.509033        -1.111095
 C        -1.936741        -0.324809        -0.602593
 C        -1.886996        -0.380387         0.943665
 C        -0.547132        -0.972531         0.616701
 O         0.106934        -1.694943         1.638023
 C        -1.211947        -1.712750        -0.654107
 O        -1.937271        -2.894509        -0.393619
 H         2.020939        -0.164986        -0.928899
 H         1.642789         1.597256        -0.403711
 H         1.994567         0.207924         0.776201
 H        -0.977298         1.515782        -1.528747
 H        -2.923296        -0.119396        -1.099362
 H        -2.064032         0.535733         1.440373
 H        -2.652667        -1.217454         1.275510
 H         0.864323        -2.001580         1.165997
 H        -0.486811        -1.864573        -1.437015
 H        -1.584369        -3.186868         0.466957
