19
Iteration:  4687charge 0 multiplicity 1
 C         1.563186         0.452804        -0.037488
 C         0.195897         0.078874        -0.444109
 C        -0.695299         0.324330        -1.394585
 C        -1.834544        -0.584245        -0.928325
 C        -1.954476        -0.161765         0.521875
 C        -0.545330        -0.901560         0.568946
 O        -0.175419        -1.305440         1.837457
 C        -1.112306        -1.916601        -0.429596
 O        -2.009904        -2.829905         0.218884
 H         1.623988         1.516365         0.139278
 H         1.954096        -0.072736         0.889475
 H         2.238365         0.235471        -0.886162
 H        -0.350678         0.708792        -2.342663
 H        -2.643308        -0.677810        -1.607110
 H        -2.148208         0.945087         0.773905
 H        -2.665960        -0.697016         1.159692
 H         0.561525        -2.004750         1.701467
 H        -0.428815        -2.372183        -1.163787
 H        -1.562680        -3.762691         0.316564
