19
Iteration:  3383charge 0 multiplicity 1
 C         1.554757         0.677426        -0.111401
 C         0.130703         0.197157        -0.093069
 C        -0.981107         0.737554        -0.621796
 C        -2.112730        -0.299108        -0.310203
 C        -1.837985        -0.620208         1.204233
 C        -0.501360        -1.092670         0.539629
 O         0.400841        -1.981704         1.186187
 C        -1.333194        -1.575330        -0.746956
 O        -1.915240        -2.804076        -0.788776
 H         1.691741         1.763140        -0.325774
 H         2.111215         0.452034         0.803911
 H         2.163101         0.086510        -0.844479
 H        -1.177302         1.794558        -1.046316
 H        -3.151696        -0.143168        -0.570025
 H        -1.818530         0.245639         1.911058
 H        -2.557870        -1.339124         1.658229
 H        -0.180214        -2.735012         1.442803
 H        -0.720615        -1.528431        -1.674229
 H        -2.113351        -3.187320         0.081804
