19
Iteration:  2696
 C         1.448577         0.818388         0.252089
 C         0.121977         0.187672        -0.049795
 C        -1.106979         0.755207        -0.283708
 C        -2.133143        -0.277005         0.021956
 C        -1.548505        -0.928633         1.280125
 C        -0.312297        -1.240551         0.325309
 O         0.518528        -2.264238         0.684390
 C        -1.450017        -1.315526        -0.861711
 O        -2.213617        -2.570191        -0.917448
 H         1.330666         1.420260         1.218585
 H         2.014378        -0.093030         0.498523
 H         1.887506         1.499043        -0.523841
 H        -1.385753         1.729254        -0.853532
 H        -3.180544        -0.045661         0.049930
 H        -1.387822        -0.156176         2.068699
 H        -1.838405        -1.890416         1.602732
 H         1.347453        -1.925435         0.917376
 H        -1.197891        -0.856868        -1.899970
 H        -1.672856        -3.198831        -1.450669
