19
Iteration:  2051charge 0 multiplicity 1
 C         1.475340         0.536979        -0.059357
 C         0.007470         0.247214         0.044595
 C        -1.142079         0.957530        -0.299119
 C        -2.089536        -0.216609        -0.210136
 C        -1.705132        -0.874909         1.204915
 C        -0.442538        -1.158031         0.423106
 O         0.544702        -2.111263         0.785085
 C        -1.323621        -1.382152        -0.844180
 O        -2.007302        -2.670682        -0.643714
 H         1.680314         1.507736         0.452534
 H         1.922881        -0.287308         0.516492
 H         1.840919         0.579427        -1.085876
 H        -1.155444         2.058916        -0.636317
 H        -3.136695         0.015859        -0.313822
 H        -1.730132        -0.241606         2.090935
 H        -2.278606        -1.778840         1.439360
 H         0.044459        -2.831688         1.317993
 H        -0.690005        -1.408064        -1.769666
 H        -1.414969        -3.281769        -1.269573
