19
Iteration:  1029charge 0 multiplicity 1
 C         1.486699         0.768994         0.130322
 C         0.085608         0.261171        -0.052035
 C        -1.033005         0.756937        -0.497437
 C        -2.118864        -0.244618        -0.300770
 C        -1.752765        -0.640879         1.165662
 C        -0.445136        -1.114402         0.454472
 O         0.343024        -2.326350         0.729476
 C        -1.320598        -1.471163        -0.755073
 O        -1.961309        -2.715518        -0.568212
 H         2.154774         0.295753         0.825098
 H         2.073430         0.485314        -0.841850
 H         1.627029         1.814917         0.378953
 H        -1.274233         1.724666        -0.940704
 H        -3.120548        -0.025888        -0.744859
 H        -1.634766         0.223400         1.839819
 H        -2.351399        -1.409783         1.556409
 H         0.898810        -2.212968         1.476518
 H        -0.772621        -1.559422        -1.710369
 H        -1.500677        -3.332360        -0.046124
