19
Iteration:  3532
 C         1.560620         0.711044         0.046324
 C         0.123516         0.260856        -0.068515
 C        -0.970718         0.699345        -0.768387
 C        -2.064879        -0.350973        -0.486748
 C        -1.838206        -0.570538         1.016555
 C        -0.476254        -1.095798         0.521282
 O         0.312447        -2.059578         1.216497
 C        -1.239789        -1.584899        -0.786363
 O        -1.990566        -2.836521        -0.424443
 H         1.984606         0.822915        -0.980349
 H         1.422749         1.726970         0.545742
 H         2.155738        -0.070428         0.553982
 H        -1.032565         1.591218        -1.456467
 H        -3.089518        -0.164507        -0.875478
 H        -1.784813         0.388231         1.611756
 H        -2.545060        -1.281883         1.300855
 H         0.825875        -1.649908         1.843934
 H        -0.535173        -1.787654        -1.695387
 H        -2.644369        -2.941883        -1.072869
