19
Iteration:  1922charge 0 multiplicity 1
 C         1.445019         0.580898         0.029474
 C         0.058513         0.225111         0.048197
 C        -0.991267         0.841342        -0.431441
 C        -2.140032        -0.145096        -0.223037
 C        -1.773303        -0.686828         1.241890
 C        -0.493285        -1.206217         0.392055
 O         0.569385        -2.064907         0.860217
 C        -1.378738        -1.420444        -0.786547
 O        -1.971696        -2.827430        -0.652873
 H         2.170450        -0.308585         0.056415
 H         1.593136         1.160136        -0.824585
 H         1.837159         1.257916         0.800920
 H        -1.160043         1.834168        -0.777413
 H        -3.121957         0.033849        -0.612460
 H        -1.465751         0.097856         1.900477
 H        -2.494779        -1.429167         1.626399
 H         0.289561        -2.914848         0.595681
 H        -0.835832        -1.410042        -1.719706
 H        -2.054681        -3.174648        -1.479178
