19
Iteration:  2173charge 0 multiplicity 1
 C         1.501947         0.641395         0.096016
 C         0.101520         0.239388        -0.032234
 C        -1.034133         0.941374        -0.276905
 C        -2.178397        -0.126706        -0.154857
 C        -1.774866        -0.941328         1.242759
 C        -0.422943        -1.220482         0.310382
 O         0.609401        -2.131622         0.722451
 C        -1.449023        -1.359244        -0.880139
 O        -1.947116        -2.736970        -0.607422
 H         2.102677         0.384196        -0.840441
 H         1.538965         1.658581         0.317966
 H         1.977567         0.140981         0.941529
 H        -1.097952         1.856381        -0.729479
 H        -3.221041         0.117551        -0.474628
 H        -1.848393        -0.322516         2.100800
 H        -2.361613        -1.841338         1.309465
 H         0.034229        -2.861880         1.128173
 H        -1.064354        -1.158940        -1.912504
 H        -2.533112        -3.032052        -1.219263
