19
Iteration:  1854
 C         1.492258         0.564538        -0.256901
 C         0.066055         0.167916         0.125053
 C        -0.995052         0.843796        -0.244526
 C        -2.131433        -0.188108        -0.261667
 C        -1.938226        -0.662923         1.133116
 C        -0.458588        -1.201350         0.487874
 O         0.517219        -2.013382         1.055097
 C        -1.337781        -1.422352        -0.808359
 O        -1.852820        -2.810007        -0.708783
 H         1.563737         0.471960        -1.354997
 H         1.604209         1.570439         0.245356
 H         2.221805        -0.095837         0.183883
 H        -1.090529         1.710905        -0.903510
 H        -2.988824         0.179805        -0.853146
 H        -1.786998         0.112423         1.885695
 H        -2.328533        -1.579349         1.488386
 H         0.261955        -2.982538         1.073103
 H        -0.879229        -1.298131        -1.798731
 H        -2.525657        -2.997804        -1.461451
