19
Iteration:   740charge 0 multiplicity 1
 C         1.587931         0.769922         0.016298
 C         0.072050         0.264612        -0.029719
 C        -1.078181         0.791317        -0.217642
 C        -2.106947        -0.286885        -0.088772
 C        -1.642437        -0.826545         1.282496
 C        -0.416692        -1.196184         0.329507
 O         0.545517        -2.126875         0.707041
 C        -1.423075        -1.469817        -0.819321
 O        -2.205073        -2.685062        -0.827300
 H         2.233529         0.072675         0.744221
 H         2.054589         0.717957        -0.992586
 H         1.704331         1.871416         0.348140
 H        -1.289516         1.749886        -0.718906
 H        -3.190754        -0.088279        -0.228643
 H        -1.372883        -0.071322         2.017325
 H        -2.136853        -1.716104         1.620163
 H         0.442954        -2.340062         1.674679
 H        -0.994532        -1.244840        -1.859710
 H        -1.776905        -3.384678        -0.248051
