19
Iteration:  1952
 C         1.590861         0.772991         0.125751
 C         0.189240         0.234894         0.001335
 C        -1.024247         0.800811        -0.441876
 C        -2.148936        -0.287368        -0.197565
 C        -1.804550        -0.850394         1.150829
 C        -0.396718        -1.175448         0.361044
 O         0.631533        -2.054499         0.809167
 C        -1.387644        -1.497210        -0.807656
 O        -2.214608        -2.662972        -0.584932
 H         2.089580         0.037430         0.760232
 H         2.079946         0.983717        -0.881241
 H         1.510858         1.764189         0.565970
 H        -1.218284         1.698721        -0.996185
 H        -3.139382        -0.128851        -0.599561
 H        -1.901686        -0.170772         1.999578
 H        -2.321858        -1.717806         1.513076
 H         0.240016        -2.928905         1.111214
 H        -0.883906        -1.677228        -1.779519
 H        -2.297456        -3.219655        -1.456970
