19
Iteration:  1060
 C         1.519022         0.740627         0.059289
 C         0.188158         0.181973        -0.036334
 C        -0.995979         0.838525        -0.384815
 C        -2.109822        -0.149502        -0.262316
 C        -1.763685        -0.804262         1.051104
 C        -0.432530        -1.156403         0.386290
 O         0.469774        -2.112633         0.935725
 C        -1.395038        -1.563784        -0.840277
 O        -2.116973        -2.764481        -0.644343
 H         2.181653        -0.091021         0.343632
 H         1.783888         0.925526        -0.951534
 H         1.503983         1.694986         0.599934
 H        -1.181394         1.784900        -0.916747
 H        -3.117506         0.092560        -0.653878
 H        -1.774937        -0.182678         1.931284
 H        -2.375100        -1.644285         1.292046
 H         0.875324        -1.686805         1.761669
 H        -0.908512        -1.622724        -1.831841
 H        -1.717803        -3.154859         0.204864
