19
Iteration:  1090charge 0 multiplicity 1
 C         1.507238         0.594030        -0.017915
 C         0.095834         0.262345        -0.120753
 C        -0.999885         0.804792        -0.542506
 C        -2.114069        -0.301941        -0.172303
 C        -1.727257        -0.755733         1.301737
 C        -0.433570        -1.112542         0.523580
 O         0.554320        -2.013785         1.057816
 C        -1.348015        -1.533384        -0.824359
 O        -2.169884        -2.708219        -0.915833
 H         1.993522        -0.463899        -0.051750
 H         1.659944         1.175181        -0.887973
 H         1.814094         1.171019         0.939769
 H        -1.348142         1.686483        -1.031178
 H        -3.144858        -0.307918        -0.554826
 H        -1.660756         0.132500         1.942265
 H        -2.382710        -1.603126         1.770407
 H         0.571921        -1.850276         1.975466
 H        -0.698495        -1.414664        -1.714404
 H        -1.681403        -3.327434        -0.316737
