19
Iteration:   708
 C         1.399124         0.586198        -0.115649
 C         0.075551         0.239575         0.097515
 C        -1.119144         0.915222        -0.222010
 C        -2.131047        -0.201707        -0.118213
 C        -1.749970        -0.887073         1.189606
 C        -0.413940        -1.125767         0.418134
 O         0.465817        -2.282930         0.656866
 C        -1.368063        -1.291089        -0.795352
 O        -1.932372        -2.653511        -0.684789
 H         2.202898         0.529628         0.682642
 H         1.862406        -0.096054        -0.889645
 H         1.668170         1.616171        -0.483197
 H        -1.102848         1.967335        -0.543877
 H        -3.203264         0.059260        -0.218877
 H        -1.798452        -0.364887         2.132787
 H        -2.151692        -1.888386         1.164014
 H         0.841478        -2.268612         1.566808
 H        -1.043539        -1.196006        -1.851619
 H        -1.088281        -3.066930        -0.443901
