19
Iteration:  1959
 C         1.616892         0.809888         0.162407
 C         0.110456         0.237792        -0.047768
 C        -1.052234         0.743481        -0.450203
 C        -2.137575        -0.303265        -0.243632
 C        -1.759993        -0.888916         1.191952
 C        -0.320574        -1.195070         0.346159
 O         0.610703        -2.069925         0.836101
 C        -1.380461        -1.465101        -0.848340
 O        -2.240734        -2.623723        -0.566654
 H         2.157322         0.145580         0.811775
 H         2.155338         0.684448        -0.838316
 H         1.550674         1.838627         0.593065
 H        -1.339429         1.688378        -0.960909
 H        -3.218614        -0.167086        -0.520629
 H        -1.680756        -0.074020         2.001381
 H        -2.453825        -1.753752         1.480238
 H         0.202756        -2.827986         1.221142
 H        -0.968264        -1.519628        -1.909994
 H        -2.199207        -3.043249        -1.390220
