19
Iteration:   380charge 0 multiplicity 1
 C         1.525457         0.621698        -0.089688
 C         0.061451         0.239210         0.066449
 C        -1.096671         0.966048        -0.048124
 C        -2.163555        -0.148225        -0.073373
 C        -1.731291        -0.995934         1.228204
 C        -0.453266        -1.158166         0.385046
 O         0.473744        -2.256088         0.531003
 C        -1.349246        -1.335446        -0.784929
 O        -1.958470        -2.652950        -0.778208
 H         2.054928         0.048649         0.598399
 H         1.777260         0.506352        -1.148339
 H         1.445335         1.696431         0.135021
 H        -1.212244         2.028171        -0.047777
 H        -3.188640        -0.028581        -0.380472
 H        -1.638990        -0.438366         2.236630
 H        -2.467758        -1.813894         1.272441
 H         0.780542        -2.274312         1.484293
 H        -1.036778        -1.023531        -1.779748
 H        -1.234343        -3.294150        -0.509948
