19
Iteration:  4335charge 0 multiplicity 1
 C         1.684598         0.506978        -0.175439
 C         0.220789         0.153764        -0.233171
 C        -0.720460         0.356138        -1.227632
 C        -1.964598        -0.425797        -0.825972
 C        -2.044346        -0.366808         0.848063
 C        -0.587547        -0.893257         0.611429
 O        -0.033936        -1.451754         1.771687
 C        -1.236379        -1.772275        -0.654669
 O        -1.944449        -2.964984        -0.132767
 H         2.072122         0.069027         0.815086
 H         2.324668         0.145507        -1.039171
 H         1.946060         1.623232        -0.049995
 H        -0.757771         1.202225        -1.852958
 H        -2.739943        -0.249776        -1.603816
 H        -2.237287         0.582830         1.299651
 H        -2.617699        -1.227013         1.378312
 H         0.738508        -1.944526         1.570012
 H        -0.469441        -2.092860        -1.491025
 H        -1.807087        -3.003938         0.790520
