19
Iteration:  2544charge 0 multiplicity 1
 C         1.496501         0.803775        -0.010772
 C         0.075876         0.280660         0.145729
 C        -1.119003         0.850037        -0.193269
 C        -2.110227        -0.253359         0.030081
 C        -1.588047        -1.064342         1.292386
 C        -0.409842        -1.202019         0.403943
 O         0.490313        -2.259378         0.811716
 C        -1.346582        -1.371677        -0.878214
 O        -2.112019        -2.569210        -0.964577
 H         1.576810         1.340604        -1.006828
 H         1.936526         1.476512         0.710389
 H         2.176201        -0.074762        -0.056511
 H        -1.344601         1.807477        -0.566290
 H        -3.149811        -0.013630        -0.158858
 H        -1.663372        -0.493835         2.301921
 H        -2.143332        -2.035843         1.382674
 H         0.998038        -2.595844         0.132880
 H        -0.951056        -0.940726        -1.816213
 H        -2.434054        -2.599141        -1.826870
