19
Iteration:  2996
 C         1.538465         0.734548         0.081873
 C         0.076748         0.277267         0.142525
 C        -1.070620         0.820983        -0.351584
 C        -2.143609        -0.237536        -0.224338
 C        -1.744597        -0.811779         1.166803
 C        -0.391393        -1.246285         0.405853
 O         0.545291        -2.168681         0.821665
 C        -1.352361        -1.484546        -0.893461
 O        -2.112683        -2.672611        -0.731913
 H         2.117290         0.052043         0.677060
 H         1.835234         0.655320        -0.997840
 H         1.565006         1.817778         0.313434
 H        -1.265567         1.819813        -0.704118
 H        -3.125840         0.042385        -0.535755
 H        -1.600626        -0.023083         1.831422
 H        -2.430029        -1.608330         1.543165
 H         0.725418        -2.028578         1.752969
 H        -1.019770        -1.266762        -1.980077
 H        -1.636602        -3.502252        -1.147301
