19
Iteration:  1992charge 0 multiplicity 1
 C         1.392930         0.744479         0.174900
 C         0.102927         0.132303        -0.111376
 C        -1.062640         0.859985        -0.390406
 C        -2.085855        -0.196677        -0.148924
 C        -1.587355        -0.758398         1.211635
 C        -0.333933        -1.229574         0.294454
 O         0.602327        -2.083717         0.838516
 C        -1.397259        -1.511718        -0.802598
 O        -2.266800        -2.737402        -0.729746
 H         1.630303         0.796125         1.221927
 H         2.296346         0.205159        -0.274278
 H         1.584961         1.793986        -0.176574
 H        -0.967608         1.837782        -0.860681
 H        -3.175426         0.051942        -0.157859
 H        -1.289879         0.102694         1.915124
 H        -2.258625        -1.623745         1.557371
 H         0.007509        -2.651753         1.305024
 H        -0.908228        -1.420878        -1.811889
 H        -1.598265        -3.307201        -1.075642
