19
Iteration:  2826charge 0 multiplicity 1
 C         1.487736         0.709945        -0.001758
 C         0.079816         0.167304         0.056780
 C        -1.003881         0.805754        -0.304738
 C        -2.179838        -0.144793         0.024675
 C        -1.702183        -0.928188         1.280948
 C        -0.411928        -1.183568         0.427565
 O         0.422809        -2.198828         0.851710
 C        -1.485354        -1.378421        -0.830574
 O        -1.894766        -2.687269        -1.084405
 H         1.911054         0.495676        -1.001456
 H         1.323723         1.760469         0.093563
 H         2.180419         0.449095         0.780643
 H        -0.994281         1.934109        -0.396701
 H        -3.192971         0.192861        -0.065267
 H        -1.660865        -0.362897         2.248074
 H        -2.351339        -1.755193         1.486663
 H         1.338041        -1.776299         0.879872
 H        -1.084338        -1.095185        -1.799724
 H        -2.291377        -3.118054        -0.229813
