19
Iteration:  4681
 C         1.609677         0.447997        -0.049369
 C         0.196214         0.115164        -0.377633
 C        -0.661560         0.319404        -1.388634
 C        -1.856451        -0.620273        -0.985234
 C        -1.963346        -0.161550         0.554153
 C        -0.553013        -0.882280         0.550155
 O        -0.166508        -1.289207         1.820616
 C        -1.108692        -1.935746        -0.402395
 O        -2.033181        -2.845708         0.203881
 H         1.741279         1.569430         0.057130
 H         1.973835         0.138163         0.916250
 H         2.253997         0.036819        -0.851184
 H        -0.631012         0.904155        -2.362079
 H        -2.894170        -0.784145        -1.457372
 H        -1.969106         0.878725         0.744365
 H        -2.734962        -0.796834         1.040005
 H         0.598779        -1.952178         1.844939
 H        -0.435984        -2.373337        -1.196095
 H        -1.640868        -3.700414         0.221984
