19
Iteration:  3522
 C         1.514720         0.740607         0.028867
 C         0.131774         0.241413        -0.115397
 C        -0.911936         0.729415        -0.778306
 C        -2.096308        -0.240794        -0.511277
 C        -1.858389        -0.582162         1.004248
 C        -0.466896        -1.099059         0.501097
 O         0.296255        -2.086592         1.227772
 C        -1.277975        -1.669865        -0.703573
 O        -1.955284        -2.869972        -0.444377
 H         2.155647         0.657506        -0.863768
 H         1.757138         1.800377         0.355526
 H         2.075552         0.260921         0.840516
 H        -1.046448         1.766704        -1.138897
 H        -3.066306        -0.210069        -1.010710
 H        -1.900548         0.299330         1.710577
 H        -2.284122        -1.388545         1.519444
 H         0.906012        -1.681157         1.804545
 H        -0.749651        -1.606621        -1.719541
 H        -2.686171        -2.907586        -1.006738
