19
Iteration:  1407charge 0 multiplicity 1
 C         1.535292         0.554013        -0.129377
 C         0.090159         0.217710         0.009518
 C        -1.015755         0.779168        -0.551838
 C        -2.059708        -0.328018        -0.379098
 C        -1.891023        -0.674287         1.078971
 C        -0.435442        -1.103886         0.516517
 O         0.383088        -1.944224         1.253351
 C        -1.207010        -1.517605        -0.756553
 O        -2.062050        -2.717601        -0.664106
 H         1.758148         1.697839        -0.046876
 H         2.183286         0.031883         0.540848
 H         1.763227         0.372688        -1.227540
 H        -1.143468         1.768152        -0.931165
 H        -3.043349        -0.359889        -0.811423
 H        -2.131510         0.169662         1.755425
 H        -2.405054        -1.620375         1.462025
 H         0.839005        -2.362729         0.515290
 H        -0.617941        -1.649198        -1.687212
 H        -1.504674        -3.442279        -0.315954
