19
Iteration:   877
 C         1.534348         0.545917        -0.132635
 C         0.077009         0.292877        -0.046578
 C        -1.183575         0.913991        -0.346452
 C        -2.169834        -0.205391        -0.125067
 C        -1.720626        -0.712843         1.302718
 C        -0.460831        -1.100715         0.473558
 O         0.353358        -2.192065         0.906349
 C        -1.317477        -1.423566        -0.771450
 O        -1.765331        -2.784952        -0.774551
 H         1.892494         1.047935        -0.970217
 H         1.934798         1.448073         0.544816
 H         2.121638        -0.316898         0.143389
 H        -1.247712         1.608528        -1.169552
 H        -3.239388         0.087354        -0.188356
 H        -1.365191         0.017515         2.106328
 H        -2.133084        -1.666229         1.699909
 H        -0.274036        -2.920421         0.917113
 H        -0.891356        -1.181985        -1.746137
 H        -2.270126        -3.080899        -1.566594
