19
Iteration:   996charge 0 multiplicity 1
 C         1.484934         0.737576         0.172912
 C         0.137120         0.194134        -0.100474
 C        -1.025025         0.803249        -0.605332
 C        -2.113284        -0.203316        -0.232618
 C        -1.693278        -0.717433         1.270556
 C        -0.513535        -1.142873         0.412592
 O         0.431637        -2.160659         0.807675
 C        -1.416721        -1.487852        -0.753683
 O        -2.008578        -2.803639        -0.645928
 H         1.655219         0.884608         1.239480
 H         2.260786        -0.006024        -0.372214
 H         1.796797         1.562369        -0.493495
 H        -1.098469         1.873599        -0.891554
 H        -3.104867         0.214045        -0.569001
 H        -1.445021         0.050544         2.016556
 H        -2.334146        -1.519533         1.557800
 H         0.489311        -2.041606         1.800222
 H        -0.981998        -1.284338        -1.774680
 H        -1.296834        -3.381839        -0.952056
