19
Iteration:  4434charge 0 multiplicity 1
 C         1.551055         0.476442        -0.084904
 C         0.189768         0.059301        -0.254220
 C        -0.689246         0.310571        -1.203935
 C        -1.953916        -0.527077        -0.845532
 C        -2.038731        -0.302347         0.684660
 C        -0.534057        -0.967094         0.570982
 O         0.136408        -1.290810         1.795957
 C        -1.224014        -1.818928        -0.511505
 O        -1.977877        -2.913039        -0.101327
 H         1.848721         0.977880        -1.002109
 H         1.868724         1.234389         0.676516
 H         2.194135        -0.429727         0.131978
 H        -0.744540         1.163174        -1.902516
 H        -2.842395        -0.453581        -1.529416
 H        -2.151489         0.665122         1.073906
 H        -2.837585        -0.951330         1.196722
 H         0.838485        -1.840466         1.597360
 H        -0.404873        -2.019183        -1.300827
 H        -2.880279        -2.713846        -0.163440
