19
Iteration:  2764charge 0 multiplicity 1
 C         1.515894         0.671801         0.140232
 C         0.055149         0.254471         0.123363
 C        -1.052225         0.849987        -0.219028
 C        -2.162870        -0.209355        -0.142631
 C        -1.739415        -1.045610         1.259712
 C        -0.439193        -1.180204         0.368867
 O         0.523159        -2.120866         0.669162
 C        -1.397228        -1.349989        -0.859542
 O        -2.036877        -2.612716        -0.820160
 H         2.253348        -0.015311         0.566154
 H         1.826279         0.721426        -0.940212
 H         1.718140         1.668975         0.685014
 H        -1.070944         1.839583        -0.560888
 H        -3.189526         0.083176        -0.385811
 H        -1.578357        -0.305473         2.091915
 H        -2.400365        -1.900037         1.394318
 H         0.717860        -2.772753        -0.041735
 H        -0.946114        -1.091744        -1.898443
 H        -1.438669        -3.245757        -0.426663
