19
Iteration:  1800charge 0 multiplicity 1
 C         1.514412         0.627709         0.047126
 C         0.084948         0.188501        -0.076715
 C        -1.035809         0.776201        -0.576197
 C        -2.148997        -0.283004        -0.185536
 C        -1.672650        -0.801644         1.212621
 C        -0.384132        -1.134440         0.420998
 O         0.542857        -1.972049         1.092668
 C        -1.417690        -1.435042        -0.890927
 O        -2.105157        -2.691829        -0.691370
 H         1.756889         1.446106        -0.709696
 H         1.703489         0.944278         1.085756
 H         2.204810        -0.203836        -0.105708
 H        -1.164541         1.707393        -1.158391
 H        -3.209401        -0.070043        -0.398307
 H        -1.342528        -0.097138         1.996320
 H        -2.289158        -1.646850         1.448569
 H        -0.080776        -2.703321         1.241507
 H        -0.992885        -1.429573        -1.871761
 H        -1.829287        -3.441971        -1.236569
