19
Iteration:   445
 C         1.472628         0.658174        -0.137830
 C         0.153832         0.143237        -0.020924
 C        -1.134720         0.815641        -0.208807
 C        -2.154404        -0.245721         0.044344
 C        -1.705300        -0.948244         1.292556
 C        -0.318372        -1.235962         0.473224
 O         0.742932        -2.030853         0.947273
 C        -1.458735        -1.393763        -0.832354
 O        -2.226206        -2.568727        -1.050027
 H         2.254820        -0.023965        -0.515476
 H         1.583921         1.629055        -0.659661
 H         1.874913         0.909628         0.887278
 H        -1.189483         1.854437        -0.459678
 H        -3.229433        -0.073973        -0.111284
 H        -1.681026        -0.437292         2.313045
 H        -2.310356        -1.833103         1.570136
 H         0.412855        -2.896780         1.098906
 H        -1.175678        -1.002085        -1.797891
 H        -2.023654        -2.914634        -1.883426
