19
Iteration:  4826
 C         1.640390         0.359433        -0.049403
 C         0.182291         0.014115        -0.352854
 C        -0.623644         0.154204        -1.403086
 C        -1.911312        -0.655518        -0.998151
 C        -1.997839         0.035239         0.502314
 C        -0.686698        -0.812209         0.592366
 O        -0.192194        -1.231564         1.852887
 C        -1.138714        -1.859815        -0.358197
 O        -1.914694        -2.914257         0.199164
 H         2.373921        -0.190496        -0.686860
 H         1.714858         1.411057        -0.394619
 H         1.938032         0.495373         1.006160
 H        -0.259257         0.463841        -2.452056
 H        -2.725933        -0.772752        -1.683889
 H        -1.878218         1.068833         0.539181
 H        -2.824531        -0.280450         1.182434
 H         0.686158        -1.462654         1.692799
 H        -0.359822        -2.327922        -1.040443
 H        -1.512863        -3.748068        -0.022796
