19
Iteration:  4028charge 0 multiplicity 1
 C         1.560717         0.603111         0.005153
 C         0.192184        -0.008641        -0.312040
 C        -0.775993         0.479199        -1.113062
 C        -2.050667        -0.264538        -0.716722
 C        -1.972887        -0.300039         0.811995
 C        -0.478264        -1.013488         0.596414
 O         0.212506        -1.607376         1.609582
 C        -1.279382        -1.791899        -0.657316
 O        -2.050673        -2.895204        -0.153192
 H         1.400763         1.094371         0.953989
 H         2.325363        -0.158938         0.210034
 H         1.858012         1.369633        -0.729308
 H        -0.603851         0.992382        -2.077666
 H        -3.009651        -0.133558        -1.236777
 H        -1.976150         0.723095         1.335696
 H        -2.541284        -1.031393         1.314994
 H         0.882832        -2.327883         1.259079
 H        -0.600984        -2.054672        -1.402493
 H        -1.645584        -3.733098        -0.152490
