19
Iteration:  3321charge 0 multiplicity 1
 C         1.601479         0.588471         0.005749
 C         0.100013         0.273103        -0.104994
 C        -1.096628         0.784987        -0.521108
 C        -2.095342        -0.315263        -0.314789
 C        -1.916291        -0.749428         1.139553
 C        -0.403134        -1.062741         0.408189
 O         0.515709        -1.964267         1.097079
 C        -1.345887        -1.520153        -0.802139
 O        -1.949964        -2.728839        -0.541689
 H         2.007937         0.016391        -0.831587
 H         1.876928         1.664057         0.037505
 H         2.000961        -0.029704         0.866930
 H        -1.196014         1.713986        -1.137479
 H        -3.120461        -0.143277        -0.637855
 H        -1.914067         0.036492         1.819796
 H        -2.372802        -1.735445         1.384966
 H         0.050659        -2.868032         1.097289
 H        -0.865822        -1.456853        -1.831177
 H        -2.600799        -2.951878        -1.243559
