19
Iteration:  2085charge 0 multiplicity 1
 C         1.609677         0.598210        -0.195543
 C         0.046702         0.214661         0.097559
 C        -1.061659         0.853061        -0.196839
 C        -2.134696        -0.209656        -0.148463
 C        -1.750408        -0.927059         1.231682
 C        -0.467838        -1.139746         0.471596
 O         0.541667        -1.983294         0.958991
 C        -1.404610        -1.401138        -0.834054
 O        -2.015276        -2.733840        -0.830425
 H         1.651567         1.730032        -0.424118
 H         2.183478         0.442074         0.690704
 H         2.045656        -0.021992        -0.982366
 H        -1.107627         1.814345        -0.824759
 H        -3.205257         0.045293        -0.185976
 H        -1.716249        -0.174519         1.957600
 H        -2.380714        -1.802828         1.331035
 H         0.126948        -2.921417         0.891892
 H        -0.873604        -1.175352        -1.803746
 H        -2.149099        -3.181656        -1.684378
