19
Iteration:  3743
 C         1.488336         0.577086         0.040854
 C         0.125970         0.189385        -0.196319
 C        -0.856455         0.650533        -0.920702
 C        -2.003507        -0.311051        -0.577133
 C        -1.941881        -0.377718         0.931114
 C        -0.504863        -1.058888         0.508193
 O         0.419525        -1.749437         1.337053
 C        -1.268531        -1.742187        -0.638296
 O        -2.018519        -2.954749        -0.338328
 H         2.066044         1.175342        -0.689275
 H         1.604565         1.199221         0.959592
 H         2.195961        -0.222211         0.329058
 H        -0.889693         1.473612        -1.691449
 H        -3.015489        -0.172646        -1.004345
 H        -1.964863         0.456947         1.550730
 H        -2.524072        -1.248943         1.363854
 H         0.094741        -2.697550         1.359281
 H        -0.499801        -1.959807        -1.492478
 H        -2.907901        -2.726595        -0.299949
