19
Iteration:   278
 C         1.519673         0.789027         0.181911
 C         0.106118         0.263198         0.120426
 C        -1.046012         0.861533        -0.227499
 C        -2.061629        -0.280367        -0.036951
 C        -1.570385        -1.041313         1.218387
 C        -0.325535        -1.225334         0.333207
 O         0.721490        -2.104865         0.596926
 C        -1.539150        -1.412243        -0.922139
 O        -2.380639        -2.607906        -0.787345
 H         1.430814         1.884885         0.576046
 H         2.163377         0.150537         0.730603
 H         1.944194         0.916555        -0.782894
 H        -1.383956         1.707658        -0.690058
 H        -3.158769        -0.107150        -0.101670
 H        -1.466665        -0.612989         2.179298
 H        -2.122560        -1.980697         1.315127
 H         0.645412        -2.526831         1.479440
 H        -1.224884        -1.205764        -1.924740
 H        -2.237027        -3.138328        -1.628492
