19
Iteration:  4510charge 0 multiplicity 1
 C         1.527842         0.575141        -0.056568
 C         0.223710        -0.022767        -0.299931
 C        -0.690335         0.339851        -1.253190
 C        -1.909374        -0.397089        -0.916746
 C        -1.954484        -0.185370         0.626638
 C        -0.537984        -0.966328         0.552659
 O        -0.071287        -1.443434         1.781010
 C        -1.221809        -1.858628        -0.541214
 O        -1.960150        -2.956962         0.055358
 H         1.562720         1.058105         0.938522
 H         2.439435        -0.109185        -0.118859
 H         1.676431         1.394777        -0.829616
 H        -0.486761         0.883332        -2.219440
 H        -2.811401        -0.520670        -1.545891
 H        -1.841256         0.844679         0.836498
 H        -2.762096        -0.760589         1.253697
 H         0.870758        -1.835743         1.539841
 H        -0.629095        -2.185654        -1.473824
 H        -1.743407        -3.042742         1.053696
