19
Iteration:  1085
 C         1.551823         0.614200         0.008866
 C         0.096250         0.260147        -0.053755
 C        -0.997150         0.794200        -0.535649
 C        -2.125953        -0.302241        -0.188476
 C        -1.717832        -0.779801         1.264837
 C        -0.438620        -1.124941         0.481422
 O         0.557899        -2.017371         1.048238
 C        -1.383000        -1.510025        -0.843523
 O        -2.170969        -2.733282        -0.878324
 H         2.005799        -0.314780        -0.062502
 H         1.741995         1.169820        -0.997651
 H         1.682259         1.271361         0.814013
 H        -1.213213         1.769002        -1.022199
 H        -3.158023        -0.213629        -0.543138
 H        -1.661132         0.089091         1.952544
 H        -2.361865        -1.490673         1.689184
 H         0.575553        -1.711656         2.023513
 H        -0.829707        -1.505854        -1.794373
 H        -1.760593        -3.338225        -0.267749
