19
Iteration:   964
 C         1.535756         0.668674         0.060028
 C         0.038441         0.237433        -0.050114
 C        -1.073129         0.841688        -0.401705
 C        -2.087515        -0.336096        -0.291235
 C        -1.693932        -0.858971         1.162698
 C        -0.405955        -1.194347         0.398838
 O         0.645852        -1.985802         1.003653
 C        -1.328690        -1.525765        -0.858892
 O        -2.265410        -2.634846        -0.720933
 H         1.728688         1.401466         0.828307
 H         2.041078        -0.347002         0.403576
 H         1.785550         0.975291        -0.949507
 H        -1.151388         1.708326        -1.054051
 H        -3.142554        -0.098359        -0.568908
 H        -1.579493        -0.087005         1.972132
 H        -2.278299        -1.690719         1.524222
 H         0.293232        -2.082950         1.928791
 H        -0.935616        -1.269268        -1.871261
 H        -1.630695        -3.431839        -0.852591
