19
Iteration:  1472charge 0 multiplicity 1
 C         1.491860         0.730813         0.097646
 C         0.097004         0.125835        -0.065283
 C        -0.975126         0.759661        -0.667776
 C        -2.039716        -0.314956        -0.362040
 C        -1.805179        -0.500182         1.143014
 C        -0.464992        -1.160902         0.532500
 O         0.489596        -2.081626         0.957042
 C        -1.274276        -1.604692        -0.697932
 O        -2.194079        -2.780753        -0.593831
 H         1.631344         1.639889        -0.608443
 H         1.603301         1.092774         1.111480
 H         2.329450         0.047404        -0.135483
 H        -0.997638         1.677754        -1.319195
 H        -3.043653        -0.227602        -0.757324
 H        -1.735134         0.470608         1.680704
 H        -2.409262        -1.321433         1.644899
 H         0.921083        -1.868343         1.760129
 H        -0.623195        -1.525448        -1.631637
 H        -1.729188        -3.489063        -1.191521
