19
Iteration:  3021
 C         1.473615         0.654876         0.132004
 C         0.070492         0.246709        -0.085628
 C        -1.108031         0.850090        -0.443417
 C        -2.110026        -0.279630        -0.242462
 C        -1.657905        -0.860454         1.291419
 C        -0.384638        -1.153984         0.506683
 O         0.638707        -2.037209         0.853474
 C        -1.318475        -1.553804        -0.733383
 O        -2.230087        -2.617722        -0.870968
 H         1.955785        -0.381262         0.343982
 H         1.891432         1.151081        -0.821476
 H         1.508100         1.412436         0.947718
 H        -1.164504         1.800874        -0.950553
 H        -3.121147        -0.090484        -0.616272
 H        -1.581350        -0.101598         2.102216
 H        -2.217833        -1.756688         1.597004
 H         0.302207        -2.455968         1.729748
 H        -0.872781        -1.363851        -1.699232
 H        -1.779032        -3.440666        -1.340176
