19
Iteration:  2898
 C         1.555256         0.649824         0.021595
 C         0.054733         0.203814        -0.031150
 C        -1.111377         0.962407        -0.284176
 C        -2.130093        -0.176854        -0.088555
 C        -1.771534        -0.940358         1.249216
 C        -0.446880        -1.210512         0.460468
 O         0.594339        -2.142608         0.931815
 C        -1.428048        -1.427654        -0.797818
 O        -2.000621        -2.697257        -1.046767
 H         1.488989         1.789411         0.037527
 H         2.016606         0.207469         1.027680
 H         2.081192         0.103454        -0.872859
 H        -1.125688         1.939954        -0.984072
 H        -3.216474        -0.142666        -0.289646
 H        -1.565502        -0.376534         2.124894
 H        -2.368163        -1.911921         1.453681
 H         1.367617        -1.652378         1.253732
 H        -1.109934        -1.099812        -1.819816
 H        -2.690561        -3.016774        -0.334780
