19
Iteration:  3620
 C         1.491605         0.546635        -0.099217
 C         0.092376         0.176975        -0.184847
 C        -0.941092         0.686145        -0.851966
 C        -2.085982        -0.297112        -0.443593
 C        -1.918447        -0.496823         1.046495
 C        -0.435345        -1.046145         0.565924
 O         0.366724        -1.879114         1.451503
 C        -1.216185        -1.591262        -0.707514
 O        -2.008295        -2.801489        -0.527385
 H         1.974149         0.819707         0.857214
 H         2.051594        -0.423256        -0.335856
 H         1.911717         1.237819        -0.809377
 H        -1.196846         1.500622        -1.436398
 H        -2.932844        -0.084349        -1.026895
 H        -1.968200         0.367424         1.729702
 H        -2.543680        -1.258883         1.433889
 H         0.099313        -2.751083         1.254898
 H        -0.529786        -1.608009        -1.656166
 H        -1.408782        -3.507695        -0.557686
