19
Iteration:  4182
 C         1.606015         0.521186        -0.080242
 C         0.187212         0.122585        -0.275203
 C        -0.751917         0.360681        -1.229591
 C        -2.003320        -0.287521        -0.735873
 C        -2.013825        -0.345846         0.832219
 C        -0.565238        -0.927768         0.627933
 O         0.223818        -1.510056         1.723976
 C        -1.254905        -1.752636        -0.640775
 O        -1.993774        -2.938145        -0.121479
 H         2.172323         0.340404        -0.958794
 H         1.598409         1.564548         0.250240
 H         1.980187        -0.133139         0.740827
 H        -0.599331         1.081561        -2.096496
 H        -2.927440        -0.123758        -1.261345
 H        -2.245181         0.614810         1.385506
 H        -2.721973        -1.104573         1.190491
 H         0.109907        -2.466473         1.583277
 H        -0.625623        -2.055632        -1.495891
 H        -1.833606        -3.685776        -0.800261
