19
Iteration:  2554charge 0 multiplicity 1
 C         1.464393         0.733654        -0.032546
 C         0.039159         0.283947         0.122714
 C        -1.153287         0.886802        -0.162091
 C        -2.112626        -0.236032         0.019875
 C        -1.604332        -1.010930         1.327878
 C        -0.358282        -1.251736         0.417274
 O         0.536600        -2.233896         0.824668
 C        -1.337106        -1.436772        -0.767991
 O        -2.105952        -2.535516        -1.072472
 H         1.503900         1.350943        -1.021209
 H         1.635009         1.354228         0.846150
 H         2.147777        -0.140911        -0.045598
 H        -1.251010         1.639820        -0.842175
 H        -3.193583        -0.079058        -0.039496
 H        -1.260507        -0.337852         2.225065
 H        -2.215103        -1.944373         1.566281
 H         0.827839        -2.594500         0.032848
 H        -1.004165        -1.045238        -1.789879
 H        -2.295851        -2.388099        -1.940029
