19
Iteration:   299
 C         1.440866         0.786819         0.225738
 C         0.113243         0.202101        -0.040824
 C        -1.088222         0.807376        -0.301660
 C        -2.152583        -0.264328         0.021763
 C        -1.441900        -0.950037         1.296936
 C        -0.375458        -1.226258         0.298219
 O         0.666066        -2.231374         0.602589
 C        -1.523736        -1.427155        -0.811510
 O        -2.312152        -2.540143        -0.910883
 H         1.490080         1.709676         0.960834
 H         2.133194         0.070683         0.601395
 H         2.012410         1.178727        -0.563528
 H        -1.303665         1.783192        -0.410973
 H        -3.241807        -0.044368         0.008302
 H        -1.329063        -0.247610         2.051241
 H        -1.909526        -1.855173         1.646383
 H         0.857650        -1.908010         1.573303
 H        -1.301588        -1.089571        -1.808574
 H        -1.703955        -3.267580        -1.288678
