19
Iteration:   824
 C         1.579086         0.656278         0.011320
 C         0.043133         0.299048         0.054511
 C        -1.048531         0.919903        -0.299344
 C        -2.106213        -0.180028        -0.182962
 C        -1.787170        -0.823569         1.135272
 C        -0.454292        -1.198774         0.331248
 O         0.600420        -2.083355         0.793704
 C        -1.390918        -1.512344        -0.810502
 O        -2.051499        -2.790330        -0.578138
 H         2.244961         0.098768        -0.731703
 H         1.619170         1.708805        -0.403605
 H         1.935763         0.520531         1.025684
 H        -1.151153         1.918298        -0.750888
 H        -3.176097         0.063978        -0.426931
 H        -1.457424        -0.125780         2.032910
 H        -2.375032        -1.711525         1.467355
 H         0.433997        -2.960255         0.497712
 H        -0.942645        -1.440150        -1.821263
 H        -2.889349        -2.885431        -1.083262
