19
Iteration:     7charge 0 multiplicity 1
 C         1.515322         0.714762         0.127299
 C         0.065206         0.251049         0.153460
 C        -1.112838         0.874213        -0.013655
 C        -2.191458        -0.252645         0.006195
 C        -1.642647        -1.031381         1.267573
 C        -0.361264        -1.190146         0.318787
 O         0.522246        -2.239759         0.373492
 C        -1.419782        -1.310341        -0.879266
 O        -2.130076        -2.555925        -0.889310
 H         2.169366         0.493189         1.013841
 H         2.219215         0.242136        -0.599976
 H         1.708923         1.838358         0.097808
 H        -1.308018         1.988731         0.069834
 H        -3.264327        -0.041986        -0.161848
 H        -1.335562        -0.663186         2.281726
 H        -2.190062        -2.013759         1.383996
 H         0.818636        -2.403026         1.331036
 H        -0.860869        -0.940524        -1.788474
 H        -1.434823        -3.299601        -1.040426
