19
Iteration:  3843charge 0 multiplicity 1
 C         1.498615         0.448483        -0.088300
 C         0.079854         0.168552        -0.212205
 C        -0.928782         0.625923        -1.049201
 C        -2.031948        -0.284798        -0.632563
 C        -1.874131        -0.405671         0.995109
 C        -0.517633        -1.026595         0.583763
 O         0.160903        -1.765079         1.579689
 C        -1.225824        -1.680411        -0.665159
 O        -1.892285        -2.879944        -0.421492
 H         1.997588         0.024965         0.807609
 H         2.082716        -0.048985        -0.898005
 H         1.856696         1.533192        -0.069011
 H        -0.644165         1.302354        -1.790811
 H        -3.040729        -0.232823        -1.161461
 H        -1.882183         0.544753         1.561957
 H        -2.451263        -1.209470         1.435959
 H         1.075018        -1.693680         1.574067
 H        -0.479538        -1.793826        -1.551992
 H        -1.789430        -3.114943         0.522393
