19
Iteration:  1144charge 0 multiplicity 1
 C         1.535045         0.549495        -0.247905
 C         0.150099         0.260738         0.073581
 C        -0.994722         0.835800        -0.396438
 C        -2.140156        -0.171332        -0.250408
 C        -1.805301        -0.783172         1.181948
 C        -0.477310        -1.088270         0.525409
 O         0.449489        -1.954757         1.103518
 C        -1.399904        -1.526272        -0.856522
 O        -1.947198        -2.809097        -0.682793
 H         1.901480         0.001164        -1.200923
 H         1.638537         1.601945        -0.312520
 H         2.225853         0.089818         0.509947
 H        -1.097830         1.763676        -0.908526
 H        -3.158999         0.029264        -0.613341
 H        -1.821178        -0.083449         2.031771
 H        -2.573926        -1.647705         1.227688
 H        -0.064295        -2.623420         1.535377
 H        -0.843366        -1.376930        -1.787433
 H        -1.613059        -3.315197        -1.431664
