19
Iteration:  2663charge 0 multiplicity 1
 C         1.458685         0.832090         0.122510
 C         0.105942         0.270105         0.151996
 C        -1.016047         0.854537        -0.142865
 C        -2.090218        -0.160841        -0.032626
 C        -1.692311        -0.911954         1.229444
 C        -0.435050        -1.272868         0.380325
 O         0.498678        -2.251986         0.481016
 C        -1.372232        -1.413556        -0.808072
 O        -2.132800        -2.733911        -0.844474
 H         1.559717         1.842191         0.660756
 H         2.254791         0.224090         0.601886
 H         1.954406         0.932556        -0.877424
 H        -1.229933         1.946455        -0.389632
 H        -3.146464         0.057250        -0.206190
 H        -1.619252        -0.266359         2.149325
 H        -2.194070        -1.829117         1.477925
 H         0.974682        -2.166488         1.391538
 H        -0.911232        -1.166303        -1.844891
 H        -1.968664        -3.046742        -1.844758
