19
Iteration:  1551charge 0 multiplicity 1
 C         1.460628         0.600136         0.041574
 C         0.104715         0.221599        -0.092133
 C        -0.986180         0.787621        -0.637226
 C        -2.143856        -0.259714        -0.294120
 C        -1.717349        -0.495281         1.177148
 C        -0.445638        -1.072352         0.460283
 O         0.392135        -2.078251         1.036371
 C        -1.428376        -1.577997        -0.715048
 O        -1.945342        -2.836087        -0.727616
 H         2.079078         0.340555        -0.864551
 H         1.541568         1.641005         0.220121
 H         1.996872        -0.051460         0.832414
 H        -0.982257         1.640853        -1.248670
 H        -3.189723        -0.008885        -0.543939
 H        -1.441825         0.348789         1.924979
 H        -2.396542        -1.145191         1.705006
 H         0.116622        -2.450214         1.842974
 H        -0.770069        -1.541613        -1.639891
 H        -1.195867        -3.459645        -0.337972
