19
Iteration:  4088charge 0 multiplicity 1
 C         1.625644         0.502651        -0.251944
 C         0.144359         0.158619        -0.199967
 C        -0.794967         0.547836        -1.063566
 C        -1.919746        -0.446954        -0.813967
 C        -1.966133        -0.358027         0.854326
 C        -0.540491        -0.983519         0.670122
 O         0.063048        -1.590002         1.806080
 C        -1.185359        -1.760370        -0.583110
 O        -2.016060        -2.893461        -0.237188
 H         2.233339        -0.191718         0.417204
 H         2.016454         0.349404        -1.277630
 H         1.988859         1.529660        -0.022902
 H        -0.876468         1.350588        -1.758108
 H        -2.891377        -0.571746        -1.351738
 H        -2.127609         0.575997         1.309646
 H        -2.752623        -1.086401         1.272108
 H         1.040986        -1.702210         1.597413
 H        -0.406954        -2.025480        -1.411977
 H        -2.309284        -3.273628        -1.054646
