19
Iteration:  3669charge 0 multiplicity 1
 C         1.556032         0.649109        -0.148918
 C         0.140249         0.182286        -0.088977
 C        -0.892814         0.671171        -0.806380
 C        -2.079725        -0.296717        -0.552007
 C        -1.899413        -0.518001         0.967862
 C        -0.474219        -1.089891         0.544917
 O         0.341446        -1.838260         1.422820
 C        -1.266798        -1.702588        -0.758784
 O        -1.989596        -2.828294        -0.367148
 H         2.149862        -0.177588         0.212584
 H         2.031326         0.956908        -1.020409
 H         1.830364         1.435643         0.591781
 H        -0.886677         1.630640        -1.329789
 H        -3.076680        -0.115903        -1.074432
 H        -1.947773         0.390778         1.587321
 H        -2.632471        -1.245833         1.401146
 H        -0.311084        -2.519528         1.824607
 H        -0.820455        -1.789628        -1.714000
 H        -1.923836        -3.506633        -1.116923
