19
Iteration:  1803charge 0 multiplicity 1
 C         1.513012         0.637320         0.030519
 C         0.109597         0.207196        -0.055066
 C        -1.061770         0.790688        -0.569448
 C        -2.147031        -0.291096        -0.219250
 C        -1.684580        -0.822358         1.235778
 C        -0.364738        -1.115823         0.409210
 O         0.550427        -1.984610         1.103788
 C        -1.416845        -1.451935        -0.854704
 O        -2.105297        -2.663926        -0.690458
 H         1.730790         1.352759        -0.859404
 H         1.671149         0.929578         1.018507
 H         2.146411        -0.272048        -0.099268
 H        -1.060582         1.656666        -1.235325
 H        -3.184751        -0.108631        -0.426579
 H        -1.447936        -0.110212         2.039269
 H        -2.363610        -1.732241         1.371593
 H        -0.112240        -2.767217         1.191390
 H        -0.936715        -1.400299        -1.857211
 H        -1.893967        -3.474061        -1.348134
