19
Iteration:  2495charge 0 multiplicity 1
 C         1.457746         0.666374         0.126691
 C         0.033532         0.261907         0.126136
 C        -1.048456         0.941111        -0.164149
 C        -2.137386        -0.145662        -0.039753
 C        -1.648941        -0.935552         1.244556
 C        -0.434690        -1.158402         0.352103
 O         0.482763        -2.251007         0.542149
 C        -1.408143        -1.441913        -0.887203
 O        -1.968074        -2.742224        -0.787317
 H         1.717769         1.351660        -0.704330
 H         1.540057         1.217074         1.129972
 H         2.174576        -0.176249         0.236841
 H        -1.193082         2.083470        -0.158610
 H        -3.216591         0.053927        -0.119298
 H        -1.354584        -0.357763         2.074841
 H        -2.342914        -1.680508         1.551021
 H         1.464717        -1.931840         0.374277
 H        -1.042104        -1.108313        -1.918347
 H        -2.706890        -2.692504        -1.529466
