19
Iteration:  4358
 C         1.591492         0.458567        -0.219329
 C         0.166432         0.033651        -0.224815
 C        -0.767039         0.453212        -1.182871
 C        -1.992233        -0.326215        -0.798772
 C        -2.010081        -0.198347         0.705054
 C        -0.585465        -0.922056         0.641692
 O        -0.008322        -1.457216         1.813572
 C        -1.156085        -1.843585        -0.463300
 O        -1.860094        -3.003465        -0.217523
 H         2.304443        -0.235772         0.282049
 H         1.982313         0.849089        -1.229390
 H         1.699177         1.377100         0.500558
 H        -0.402045         0.650618        -2.192157
 H        -2.880727        -0.240930        -1.483703
 H        -2.129221         0.755122         1.123439
 H        -2.789493        -0.956831         1.193332
 H         0.504531        -2.337490         1.477452
 H        -0.416059        -2.037736        -1.358517
 H        -1.914750        -3.170654         0.813122
