19
Iteration:  2555
 C         1.453528         0.725462        -0.035802
 C         0.030741         0.282561         0.117832
 C        -1.146051         0.886444        -0.155503
 C        -2.118445        -0.238152         0.022258
 C        -1.608902        -0.999797         1.328155
 C        -0.349176        -1.259109         0.423520
 O         0.542513        -2.228227         0.826954
 C        -1.341060        -1.429096        -0.759139
 O        -2.104515        -2.536758        -1.083112
 H         1.533265         1.339840        -0.992843
 H         1.611372         1.328218         0.840490
 H         2.168702        -0.134925        -0.052241
 H        -1.253364         1.648970        -0.871986
 H        -3.186048        -0.104161        -0.042837
 H        -1.220515        -0.326711         2.228858
 H        -2.207783        -1.917350         1.586581
 H         0.824893        -2.613453        -0.012848
 H        -0.973545        -1.072490        -1.753709
 H        -2.313371        -2.395834        -1.998044
