19
Iteration:  2928charge 0 multiplicity 1
 C         1.478525         0.636306         0.058226
 C         0.036513         0.195997         0.095199
 C        -1.086678         0.791775        -0.305718
 C        -2.140184        -0.271107        -0.091729
 C        -1.661190        -0.723736         1.302143
 C        -0.449146        -1.117812         0.435935
 O         0.342873        -2.175388         0.773334
 C        -1.364143        -1.432912        -0.814598
 O        -1.882771        -2.716759        -1.005238
 H         1.666629         1.470468         0.711539
 H         2.236581        -0.081906         0.404559
 H         1.767160         0.891279        -0.988516
 H        -1.163611         1.808553        -0.830910
 H        -3.248264        -0.070113        -0.249976
 H        -1.344867         0.154605         1.881053
 H        -2.147704        -1.525120         1.802267
 H         1.208422        -1.907230         1.052693
 H        -1.079893        -1.163857        -1.912852
 H        -1.987447        -3.119206        -0.203041
