19
Iteration:  3518charge 0 multiplicity 1
 C         1.526099         0.767478         0.031996
 C         0.119087         0.189174        -0.140045
 C        -0.909733         0.756406        -0.774044
 C        -2.071294        -0.212742        -0.521117
 C        -1.875460        -0.570687         1.032073
 C        -0.440670        -1.105225         0.490070
 O         0.272383        -2.086747         1.215381
 C        -1.298857        -1.704342        -0.664993
 O        -1.923497        -2.876526        -0.455924
 H         2.162958         0.513625        -0.858689
 H         1.754090         1.860003         0.205842
 H         1.965537         0.331904         1.009331
 H        -1.045902         1.833541        -1.093569
 H        -3.077495        -0.087532        -1.066551
 H        -1.909178         0.244779         1.782273
 H        -2.300151        -1.489738         1.539021
 H         0.965967        -1.555060         1.821682
 H        -0.865732        -1.645807        -1.757647
 H        -2.783637        -2.914377        -1.047758
