19
Iteration:  4282
 C         1.616885         0.637923         0.070338
 C         0.168191         0.068904        -0.263393
 C        -0.693674         0.311613        -1.268275
 C        -2.018114        -0.436698        -0.833478
 C        -2.024450        -0.225627         0.799657
 C        -0.589695        -0.944764         0.600666
 O         0.192544        -1.619158         1.605592
 C        -1.277533        -1.775689        -0.563514
 O        -2.042818        -2.914195        -0.132916
 H         1.592585         1.557438         0.570508
 H         2.248260        -0.160906         0.487648
 H         2.248340         0.734667        -0.845140
 H        -0.685300         1.075998        -1.994615
 H        -2.951660        -0.370677        -1.452132
 H        -2.002057         0.754473         1.148066
 H        -2.793927        -0.945384         1.271981
 H         0.965499        -1.155640         1.714523
 H        -0.567859        -2.064887        -1.362698
 H        -1.604239        -3.385877         0.541375
