19
Iteration:   194charge 0 multiplicity 1
 C         1.485765         0.601200        -0.164929
 C         0.030311         0.243907        -0.010616
 C        -1.078425         0.890972        -0.123574
 C        -2.235348        -0.189939         0.174198
 C        -1.681107        -0.951464         1.433549
 C        -0.453613        -1.135654         0.453335
 O         0.410526        -2.263450         0.690269
 C        -1.486156        -1.270204        -0.803367
 O        -1.648633        -2.638253        -1.044869
 H         1.765219         1.315890        -0.994247
 H         1.844353         1.177084         0.821075
 H         2.199841        -0.387579        -0.204428
 H        -1.381157         1.876033        -0.268308
 H        -3.276451         0.110197         0.201720
 H        -1.488418        -0.268080         2.317361
 H        -2.267603        -1.896099         1.744380
 H         0.037622        -2.932385         0.060610
 H        -1.111348        -0.836329        -1.781493
 H        -2.437719        -2.864019        -1.608490
