19
Iteration:  2061
 C         1.485951         0.545320        -0.086272
 C         0.040570         0.263153         0.020301
 C        -1.076662         0.914378        -0.230872
 C        -2.158364        -0.202435        -0.202787
 C        -1.769829        -0.914484         1.201188
 C        -0.406565        -1.128267         0.382123
 O         0.551157        -2.083422         0.855675
 C        -1.321341        -1.416847        -0.816962
 O        -1.971102        -2.664000        -0.678826
 H         1.820033         1.565683         0.153181
 H         2.073114        -0.224753         0.505390
 H         1.718597         0.340391        -1.134556
 H        -1.234259         2.037255        -0.224458
 H        -3.170191        -0.118707        -0.575780
 H        -1.571812        -0.122828         1.930407
 H        -2.424803        -1.788935         1.375994
 H        -0.078233        -2.722108         1.288814
 H        -1.121234        -1.116195        -1.881677
 H        -1.770703        -3.478781        -1.340567
