19
Iteration:  2728
 C         1.466779         0.750687         0.226157
 C         0.033823         0.224494         0.061844
 C        -1.077594         0.919278        -0.241136
 C        -2.095704        -0.225948        -0.179535
 C        -1.640857        -1.009888         1.282619
 C        -0.383605        -1.235306         0.353475
 O         0.675367        -2.158249         0.722068
 C        -1.375467        -1.421540        -0.842849
 O        -2.310462        -2.612257        -0.919705
 H         1.776973         0.599656         1.325477
 H         2.118517         0.001074        -0.284921
 H         1.774617         1.695281        -0.269250
 H        -1.315952         2.065060        -0.223224
 H        -3.134265         0.007696        -0.355480
 H        -1.546777        -0.325235         2.125159
 H        -2.123340        -1.892971         1.640039
 H         1.355880        -2.070480        -0.040842
 H        -1.075192        -1.264075        -1.925752
 H        -1.766952        -3.375041        -0.643318
