19
Iteration:  2398
 C         1.485878         0.780361        -0.007551
 C         0.064848         0.222027         0.117924
 C        -1.051668         0.827598        -0.226341
 C        -2.157698        -0.206818        -0.083036
 C        -1.665011        -1.028176         1.234874
 C        -0.306630        -1.201602         0.400703
 O         0.535916        -2.179541         0.727797
 C        -1.330261        -1.366349        -0.830314
 O        -2.144347        -2.587007        -0.758132
 H         1.496757         1.828290         0.261420
 H         2.206012         0.201810         0.633596
 H         1.851612         0.832337        -1.029481
 H        -1.087722         1.901509        -0.481955
 H        -3.202346        -0.081539        -0.350155
 H        -1.590750        -0.679038         2.288705
 H        -2.193467        -2.014697         1.375606
 H         0.171376        -3.030160         0.257656
 H        -1.227648        -0.938851        -1.853563
 H        -2.119157        -2.942566        -1.762365
