19
Iteration:  4066
 C         1.579870         0.555450        -0.156441
 C         0.160282         0.158897        -0.218432
 C        -0.808993         0.498750        -1.064183
 C        -1.988092        -0.393517        -0.723290
 C        -1.846474        -0.308478         0.894199
 C        -0.498566        -0.940513         0.568690
 O         0.042472        -1.574480         1.730785
 C        -1.144774        -1.906977        -0.583371
 O        -2.079932        -2.906979        -0.272483
 H         2.048044         0.307262         0.842857
 H         2.254699         0.162954        -0.938940
 H         1.679861         1.647062        -0.306479
 H        -0.655410         0.879401        -2.049212
 H        -3.024331        -0.154357        -1.017210
 H        -1.848348         0.702210         1.129301
 H        -2.674432        -0.813293         1.475136
 H         0.833610        -2.045987         1.535107
 H        -0.396823        -2.232462        -1.429643
 H        -2.032882        -3.570386        -1.020602
