19
Iteration:  1189
 C         1.552736         0.636125        -0.099449
 C         0.044408         0.240641         0.041995
 C        -1.034051         0.775243        -0.579015
 C        -2.146550        -0.269062        -0.283772
 C        -1.799834        -0.643465         1.177616
 C        -0.435866        -1.150257         0.473179
 O         0.367111        -2.107416         1.065010
 C        -1.278909        -1.487868        -0.749057
 O        -1.875111        -2.751788        -0.601082
 H         1.691127         0.489285        -1.206159
 H         1.613185         1.592975         0.256534
 H         2.188016        -0.149639         0.392696
 H        -1.145885         1.774014        -1.060324
 H        -3.188181        -0.045061        -0.597402
 H        -1.643511         0.259298         1.804975
 H        -2.259519        -1.577602         1.636300
 H         0.612039        -2.733902         0.382020
 H        -0.775087        -1.288374        -1.729556
 H        -2.742908        -2.658702        -0.940531
