19
Iteration:  2808
 C         1.510782         0.707170         0.019470
 C         0.074961         0.215421         0.087633
 C        -1.065399         0.863679        -0.218862
 C        -2.180370        -0.226720        -0.021052
 C        -1.638969        -0.838355         1.339608
 C        -0.481244        -1.191187         0.377504
 O         0.315904        -2.242834         0.775968
 C        -1.455964        -1.362033        -0.834342
 O        -1.840935        -2.690109        -1.053981
 H         2.214694         0.044189        -0.522523
 H         1.704411         1.698174        -0.492623
 H         1.974602         0.720702         1.088458
 H        -1.395697         1.704624        -0.677174
 H        -3.232814         0.047443        -0.231775
 H        -1.254199        -0.179601         2.150526
 H        -2.096611        -1.776940         1.692758
 H         1.292671        -2.101153         0.546905
 H        -1.142230        -0.986457        -1.873682
 H        -1.799185        -3.132030        -0.122273
