19
Iteration:   714
 C         1.419034         0.609168        -0.091883
 C         0.022412         0.254104         0.064514
 C        -1.108365         0.923552        -0.245687
 C        -2.107098        -0.172060        -0.126429
 C        -1.695754        -0.936992         1.198054
 C        -0.410340        -1.121660         0.397334
 O         0.496881        -2.287070         0.678690
 C        -1.366826        -1.325555        -0.828394
 O        -1.987664        -2.641352        -0.678035
 H         2.153563         0.378366         0.740263
 H         1.817453         0.112218        -0.965462
 H         1.588548         1.661465        -0.302081
 H        -1.090244         1.972088        -0.423486
 H        -3.182606        -0.035366        -0.214743
 H        -1.790624        -0.258907         2.097852
 H        -2.167415        -1.944635         1.136006
 H         0.732452        -2.330761         1.673618
 H        -0.993367        -1.118094        -1.853315
 H        -1.217827        -3.214921        -0.196122
