19
Iteration:  1183charge 0 multiplicity 1
 C         1.517936         0.601885        -0.159110
 C         0.090391         0.233299         0.040002
 C        -1.053309         0.815503        -0.552368
 C        -2.090435        -0.295862        -0.320076
 C        -1.850027        -0.677913         1.183930
 C        -0.453343        -1.150784         0.460808
 O         0.374038        -2.110514         1.100666
 C        -1.294912        -1.436326        -0.753589
 O        -1.867615        -2.729407        -0.587025
 H         1.764493         0.571300        -1.210007
 H         1.778246         1.699368         0.240710
 H         2.111813        -0.044464         0.479755
 H        -1.236064         1.812604        -0.955603
 H        -3.131310        -0.043702        -0.509840
 H        -1.610775         0.128573         1.886916
 H        -2.270589        -1.543448         1.592330
 H         0.540722        -2.771426         0.326389
 H        -0.692023        -1.501598        -1.679615
 H        -2.709603        -2.813301        -1.045659
