19
Iteration:  2582charge 0 multiplicity 1
 C         1.477808         0.574498        -0.012471
 C         0.042357         0.187134         0.073207
 C        -1.121750         0.769670        -0.157624
 C        -2.182496        -0.237076         0.069519
 C        -1.688762        -0.881185         1.455002
 C        -0.378613        -1.225563         0.427142
 O         0.676622        -2.071865         0.806168
 C        -1.481169        -1.381037        -0.858706
 O        -2.009100        -2.577250        -1.170859
 H         1.546596         1.267338        -0.846263
 H         1.879818         1.076683         0.901195
 H         2.164980        -0.191770        -0.358394
 H        -1.326305         1.889800        -0.128559
 H        -3.250526         0.096260         0.081300
 H        -1.437285        -0.163523         2.186826
 H        -2.208029        -1.747975         1.876311
 H         0.436358        -2.848504         0.234451
 H        -1.226543        -0.906123        -1.811532
 H        -2.220924        -2.630471        -2.133520
