19
Iteration:  4328charge 0 multiplicity 1
 C         1.701758         0.499779        -0.126155
 C         0.182621         0.145485        -0.254499
 C        -0.767853         0.390871        -1.179009
 C        -2.001090        -0.474940        -0.851398
 C        -2.025867        -0.351069         0.817343
 C        -0.507774        -0.918503         0.570011
 O        -0.029832        -1.481952         1.779190
 C        -1.191143        -1.831119        -0.615214
 O        -1.964595        -2.898556        -0.150235
 H         1.919635         0.315471         0.888186
 H         2.307262         0.014475        -0.884562
 H         1.943063         1.547620        -0.223914
 H        -0.821581         1.275042        -1.876130
 H        -2.820980        -0.347347        -1.597840
 H        -2.126910         0.648671         1.230015
 H        -2.611225        -1.097170         1.384166
 H         0.823916        -1.708447         1.503198
 H        -0.609514        -2.157147        -1.442493
 H        -1.756778        -2.790926         0.774102
