19
Iteration:  2727
 C         1.467050         0.750071         0.225914
 C         0.026257         0.229150         0.054257
 C        -1.074119         0.917443        -0.246611
 C        -2.096977        -0.225949        -0.173461
 C        -1.630896        -1.002857         1.290031
 C        -0.386410        -1.243965         0.349241
 O         0.668616        -2.162336         0.725724
 C        -1.366785        -1.417672        -0.849120
 O        -2.313865        -2.604249        -0.921459
 H         1.745125         0.633956         1.334559
 H         2.114414        -0.019355        -0.241116
 H         1.738967         1.671214        -0.266497
 H        -1.329249         2.046292        -0.215286
 H        -3.154350        -0.021405        -0.363753
 H        -1.519783        -0.335254         2.109517
 H        -2.075039        -1.931622         1.661784
 H         1.381973        -2.040175        -0.034116
 H        -1.057993        -1.253421        -1.901161
 H        -1.747398        -3.424466        -0.643220
