19
Iteration:  4569charge 0 multiplicity 1
 C         1.581843         0.427701        -0.093430
 C         0.170409         0.017115        -0.244063
 C        -0.617103         0.275058        -1.374360
 C        -1.885768        -0.481207        -0.911905
 C        -2.063848        -0.268272         0.634521
 C        -0.683051        -0.869562         0.624417
 O         0.000982        -1.409080         1.800255
 C        -1.147210        -1.815996        -0.513345
 O        -1.970989        -2.830275         0.049437
 H         2.279495        -0.395003         0.188595
 H         1.826484         0.729787        -1.135430
 H         1.658299         1.267591         0.632495
 H        -0.538468         1.027149        -2.135977
 H        -2.781112        -0.555009        -1.512080
 H        -2.257119         0.810434         0.921141
 H        -2.838687        -0.807306         1.032832
 H         0.825070        -0.975358         1.837602
 H        -0.487731        -2.208992        -1.346334
 H        -1.405375        -3.340362         0.618876
