19
Iteration:  2755
 C         1.556322         0.686885         0.146225
 C         0.108709         0.160531         0.210032
 C        -1.058883         0.854141        -0.202813
 C        -2.175593        -0.222885        -0.088763
 C        -1.773437        -0.966801         1.170427
 C        -0.458079        -1.181948         0.330471
 O         0.595219        -2.072299         0.671113
 C        -1.352902        -1.364825        -0.892355
 O        -2.129951        -2.636528        -0.818036
 H         2.153622         0.106041         0.819326
 H         2.055677         0.697538        -0.855647
 H         1.597183         1.777225         0.407446
 H        -1.216202         1.734457        -0.709819
 H        -3.237816         0.076372        -0.260960
 H        -1.842689        -0.414048         2.139629
 H        -2.171766        -2.016897         1.381266
 H         0.776190        -2.609070        -0.154915
 H        -1.129316        -1.163991        -1.947565
 H        -1.546433        -3.288635        -0.426623
