19
Iteration:  2054charge 0 multiplicity 1
 C         1.488581         0.536432        -0.067607
 C         0.018323         0.234566         0.038201
 C        -1.142810         0.962467        -0.283585
 C        -2.092777        -0.217487        -0.218890
 C        -1.724114        -0.900312         1.211330
 C        -0.435817        -1.143819         0.412370
 O         0.549509        -2.110318         0.808502
 C        -1.322839        -1.378081        -0.828852
 O        -1.994873        -2.673049        -0.652733
 H         1.700616         1.564722         0.387224
 H         1.850622        -0.261709         0.495795
 H         1.769877         0.504572        -1.136317
 H        -1.115385         2.073176        -0.479523
 H        -3.176140        -0.000437        -0.369989
 H        -1.662206        -0.167083         1.998402
 H        -2.329943        -1.773887         1.384211
 H         0.002845        -2.714336         1.269810
 H        -0.804754        -1.329716        -1.806896
 H        -1.529408        -3.346333        -1.266665
