19
Iteration:   696
 C         1.544931         0.587848        -0.186858
 C         0.068917         0.275853         0.148144
 C        -1.075415         0.896517        -0.184604
 C        -2.208179        -0.172538        -0.065128
 C        -1.808250        -0.890275         1.265560
 C        -0.449678        -1.159322         0.442308
 O         0.404143        -2.225477         0.612414
 C        -1.368634        -1.386157        -0.801256
 O        -1.852148        -2.651041        -0.736686
 H         2.030733         0.627581         0.848365
 H         1.899978        -0.257104        -0.772829
 H         1.534268         1.527328        -0.778519
 H        -1.290612         1.777366        -0.729724
 H        -3.219675         0.075473        -0.468863
 H        -1.658617        -0.226061         2.134946
 H        -2.421597        -1.690502         1.497412
 H         0.909770        -2.102921         1.467062
 H        -0.912231        -1.022779        -1.769378
 H        -1.112835        -3.373835        -0.739805
