19
Iteration:  3240
 C         1.420201         0.729180         0.057508
 C         0.059424         0.223262        -0.044786
 C        -1.013645         0.771677        -0.623793
 C        -2.014160        -0.222168        -0.230620
 C        -1.628205        -0.770666         1.185068
 C        -0.420336        -1.159822         0.411241
 O         0.469791        -2.024945         1.050453
 C        -1.328781        -1.536137        -0.808741
 O        -2.137781        -2.721022        -0.686052
 H         1.950562         0.300085         0.953313
 H         1.965183         0.311406        -0.801625
 H         1.303577         1.800607        -0.025665
 H        -1.119888         1.761403        -0.864607
 H        -3.086983        -0.220523        -0.503434
 H        -1.464454        -0.055616         2.068995
 H        -2.227718        -1.559119         1.566091
 H        -0.026865        -2.814109         1.314134
 H        -0.752514        -1.358305        -1.811108
 H        -1.708326        -3.514164        -0.953251
