19
Iteration:   123
 C         1.483962         0.654969        -0.012164
 C         0.092928         0.141380         0.062305
 C        -1.093676         0.838310        -0.061849
 C        -2.151341        -0.263702         0.054979
 C        -1.696896        -1.113719         1.250954
 C        -0.369734        -1.258470         0.386770
 O         0.760582        -2.007729         0.733180
 C        -1.419093        -1.327326        -0.909601
 O        -2.258425        -2.475081        -0.934808
 H         2.022926         0.673139        -0.988979
 H         1.466958         1.693219         0.210732
 H         2.084809         0.156899         0.710937
 H        -1.166958         1.901102        -0.382392
 H        -3.190266         0.074181        -0.101143
 H        -1.625762        -0.563326         2.179385
 H        -2.138444        -2.053583         1.403533
 H         0.606589        -2.982359         0.736578
 H        -1.055630        -1.071710        -1.891668
 H        -2.151469        -3.016995        -1.786285
