19
Iteration:  4039
 C         1.563941         0.585418        -0.018545
 C         0.250657         0.003230        -0.308652
 C        -0.755613         0.400375        -1.156629
 C        -2.025516        -0.352087        -0.716816
 C        -1.948319        -0.337273         0.833586
 C        -0.525005        -0.997706         0.540426
 O         0.204498        -1.601993         1.700709
 C        -1.364932        -1.725055        -0.562847
 O        -2.020277        -2.866350        -0.199685
 H         1.582579         0.939802         1.001413
 H         2.474174        -0.000959        -0.211994
 H         1.663659         1.469205        -0.679180
 H        -0.760081         1.252600        -1.898684
 H        -2.985176        -0.089464        -1.161717
 H        -2.035428         0.699519         1.338577
 H        -2.749376        -0.935299         1.172821
 H         0.816976        -2.247756         1.350832
 H        -0.893162        -1.917309        -1.470401
 H        -1.374171        -3.462869        -0.628653
