19
Iteration:  3046charge 0 multiplicity 1
 C         1.511536         0.623113         0.139859
 C         0.092407         0.134870        -0.017943
 C        -1.047343         0.699934        -0.509506
 C        -2.123778        -0.299609        -0.111277
 C        -1.689423        -0.824541         1.174412
 C        -0.387619        -1.149466         0.431564
 O         0.676070        -1.894012         1.011465
 C        -1.472968        -1.452236        -0.888385
 O        -2.196411        -2.632054        -0.841770
 H         2.213894        -0.157593        -0.276252
 H         1.507973         1.525801        -0.456429
 H         1.706116         0.872570         1.208190
 H        -1.154903         1.793117        -0.897725
 H        -3.238145        -0.047014        -0.192338
 H        -1.565750        -0.088954         2.080427
 H        -2.268145        -1.704102         1.431464
 H         0.360433        -2.889571         0.929183
 H        -1.167369        -1.190475        -1.874354
 H        -1.621098        -3.338976        -1.169954
