19
Iteration:  2702charge 0 multiplicity 1
 C         1.438956         0.789245         0.275117
 C         0.033866         0.158085        -0.047575
 C        -1.118075         0.762693        -0.262455
 C        -2.103756        -0.324062         0.006251
 C        -1.496909        -0.915388         1.240767
 C        -0.300177        -1.205954         0.298070
 O         0.510354        -2.221927         0.701693
 C        -1.407457        -1.364310        -0.861618
 O        -2.223833        -2.503859        -0.922690
 H         1.409285         1.236110         1.252296
 H         2.145077        -0.069463         0.373406
 H         1.772928         1.436615        -0.500833
 H        -1.350189         1.615897        -0.753940
 H        -3.199469        -0.095332         0.102277
 H        -1.302754        -0.201910         2.042896
 H        -2.120664        -1.830174         1.628250
 H         1.439958        -1.888747         0.785504
 H        -1.193931        -1.054259        -1.843042
 H        -1.711386        -3.208544        -1.224918
