19
Iteration:   594
 C         1.507912         0.775912         0.038936
 C         0.049737         0.235247         0.171578
 C        -1.014638         0.872443        -0.302914
 C        -2.044898        -0.258576        -0.195257
 C        -1.741872        -0.933411         1.236789
 C        -0.386691        -1.302378         0.395293
 O         0.715947        -2.087319         0.768861
 C        -1.432077        -1.485089        -0.894090
 O        -2.263343        -2.620141        -0.731742
 H         1.467744         1.899673         0.283460
 H         2.235918         0.230253         0.660019
 H         1.894649         0.744461        -0.991805
 H        -1.109430         1.778054        -0.826056
 H        -3.062822         0.054588        -0.340043
 H        -1.520158        -0.201882         1.970486
 H        -2.449418        -1.756524         1.424300
 H         0.383909        -2.735367         1.395642
 H        -1.117568        -1.281804        -1.962511
 H        -2.171708        -3.127870        -1.486744
