19
Iteration:  2577charge 0 multiplicity 1
 C         1.463835         0.622082        -0.015892
 C         0.020452         0.152290         0.056335
 C        -1.125300         0.781533        -0.164857
 C        -2.167990        -0.245823         0.069201
 C        -1.630587        -0.864190         1.463900
 C        -0.420695        -1.215321         0.476262
 O         0.687824        -2.127732         0.816835
 C        -1.430231        -1.363773        -0.866288
 O        -2.041757        -2.577973        -1.174683
 H         1.432425         1.272806        -0.918627
 H         1.774465         1.099279         0.900193
 H         2.077363        -0.290107        -0.247539
 H        -1.302786         1.849185        -0.200122
 H        -3.211228         0.006778        -0.009205
 H        -1.598798         0.035444         2.238127
 H        -2.181702        -1.780650         1.757358
 H         0.608036        -2.833928         0.081928
 H        -1.159182        -0.843105        -1.804060
 H        -2.241650        -2.494949        -2.174053
