19
Iteration:    59
 C         1.414339         0.743770         0.311761
 C         0.110610         0.170746         0.072765
 C        -1.076267         0.873215        -0.266817
 C        -2.153147        -0.165747         0.034054
 C        -1.547482        -1.021882         1.278037
 C        -0.402983        -1.263800         0.308990
 O         0.603690        -2.224175         0.329496
 C        -1.493341        -1.345799        -0.802906
 O        -2.141260        -2.555890        -0.804602
 H         2.310886        -0.012848         0.479559
 H         1.689235         1.406534        -0.516821
 H         1.445629         1.418422         1.136812
 H        -1.195114         1.983778        -0.235815
 H        -3.219974         0.129138        -0.034592
 H        -1.391551        -0.339973         2.112991
 H        -2.026185        -1.942723         1.560493
 H         0.532507        -2.779837         1.175124
 H        -1.089280        -0.972930        -1.754682
 H        -1.639280        -3.162524        -1.451407
