19
Iteration:   330charge 0 multiplicity 1
 C         1.463564         0.727834         0.146728
 C         0.054576         0.222342        -0.005323
 C        -1.099525         0.885527        -0.215491
 C        -2.143300        -0.206182         0.010577
 C        -1.562042        -0.836332         1.357455
 C        -0.423380        -1.203454         0.346561
 O         0.485314        -2.306108         0.475241
 C        -1.375141        -1.429055        -0.793035
 O        -2.096760        -2.613581        -0.902192
 H         1.529294         1.182637         1.186677
 H         2.046297        -0.189965         0.028894
 H         1.612262         1.458658        -0.648679
 H        -1.335136         1.854258        -0.336974
 H        -3.233141        -0.033779        -0.049818
 H        -1.432040        -0.106679         2.131834
 H        -2.045742        -1.707467         1.806797
 H         1.253722        -2.110778         0.960938
 H        -0.966766        -1.098709        -1.774792
 H        -1.590205        -3.332672        -0.544101
