19
Iteration:  4578charge 0 multiplicity 1
 C         1.572130         0.441548        -0.117916
 C         0.178266         0.045957        -0.329168
 C        -0.602433         0.267594        -1.326598
 C        -1.872888        -0.470161        -0.878329
 C        -2.066638        -0.199231         0.663098
 C        -0.630918        -0.905125         0.603289
 O        -0.008069        -1.337803         1.833133
 C        -1.198130        -1.846776        -0.478480
 O        -2.028247        -2.943970        -0.013321
 H         2.192913        -0.464269        -0.085007
 H         1.947033         1.134119        -0.947469
 H         1.843284         1.127175         0.773250
 H        -0.520882         1.058852        -2.021462
 H        -2.573394        -0.637544        -1.650725
 H        -2.030573         0.864169         1.020057
 H        -2.873977        -0.854347         1.007271
 H         0.822042        -0.955176         2.018500
 H        -0.394184        -2.258423        -1.225455
 H        -1.366233        -3.371822         0.519515
