19
Iteration:   475
 C         1.495680         0.682282        -0.046022
 C         0.010326         0.267053         0.152952
 C        -1.036276         0.863538        -0.205103
 C        -2.075263        -0.252711        -0.156702
 C        -1.657007        -1.012750         1.254672
 C        -0.341441        -1.202963         0.398709
 O         0.631837        -1.997017         0.837541
 C        -1.364931        -1.468127        -0.900243
 O        -2.206450        -2.634348        -0.811017
 H         1.755001         0.172253        -1.043213
 H         1.494177         1.741092         0.128285
 H         2.123661         0.111979         0.664771
 H        -1.203050         1.917376        -0.429772
 H        -3.129668        -0.128919        -0.371654
 H        -1.456160        -0.449733         2.128448
 H        -2.257999        -1.885021         1.465095
 H         0.381305        -2.979456         0.730270
 H        -0.999475        -1.241478        -1.943140
 H        -2.840162        -2.530833        -1.605259
