19
Iteration:  2437charge 0 multiplicity 1
 C         1.427735         0.683909         0.155720
 C         0.046072         0.231058         0.024048
 C        -1.024099         0.896419        -0.163122
 C        -2.147323        -0.181665        -0.065061
 C        -1.600338        -0.915924         1.266012
 C        -0.385141        -1.164472         0.290613
 O         0.673241        -2.188902         0.626467
 C        -1.468077        -1.429567        -0.818748
 O        -2.159622        -2.691475        -0.848817
 H         1.469463         1.755060        -0.091891
 H         1.898400         0.669388         1.158079
 H         2.121407         0.064624        -0.489552
 H        -1.172243         1.910032        -0.208127
 H        -3.193035        -0.091495        -0.333502
 H        -1.184547        -0.457763         2.178914
 H        -2.265464        -1.743666         1.250860
 H         0.689564        -2.286321         1.526534
 H        -1.212956        -1.288424        -1.893345
 H        -2.511714        -2.752317        -1.702033
