19
Iteration:   164charge 0 multiplicity 1
 C         1.415463         0.638742        -0.206410
 C         0.070977         0.261698         0.287223
 C        -1.102240         0.924479         0.013975
 C        -2.143450        -0.199033         0.015139
 C        -1.672263        -1.004082         1.291778
 C        -0.442450        -1.169557         0.413739
 O         0.516585        -2.238360         0.638501
 C        -1.358213        -1.318858        -0.881324
 O        -1.852879        -2.620677        -0.961851
 H         1.287915         0.885169        -1.209076
 H         1.719921         1.491972         0.432724
 H         1.996671        -0.301048        -0.063463
 H        -1.312816         1.930357        -0.354296
 H        -3.196584         0.032410         0.019340
 H        -1.432513        -0.320968         2.142301
 H        -2.351508        -1.800524         1.596791
 H        -0.066241        -2.986549         0.986260
 H        -0.857706        -0.993470        -1.815232
 H        -2.565370        -2.659412        -1.651565
