19
Iteration:  1632charge 0 multiplicity 1
 C         1.562479         0.489663        -0.183546
 C         0.078999         0.216185         0.055641
 C        -1.030592         0.809133        -0.363814
 C        -2.075602        -0.254764        -0.356534
 C        -1.827403        -0.789295         1.102785
 C        -0.409266        -1.145921         0.495909
 O         0.448565        -1.899841         1.251204
 C        -1.243918        -1.539472        -0.810740
 O        -2.161042        -2.709508        -0.779360
 H         2.118283        -0.359615         0.091331
 H         1.751566         0.552547        -1.340575
 H         1.875247         1.446986         0.259653
 H        -1.195387         1.801664        -0.873984
 H        -3.054038        -0.178722        -0.851573
 H        -1.885723        -0.028364         1.834873
 H        -2.428919        -1.700198         1.295445
 H         0.916792        -1.261480         1.827756
 H        -0.804861        -1.347085        -1.773753
 H        -1.518315        -3.466031        -1.158202
