19
Iteration:  3226charge 0 multiplicity 1
 C         1.469087         0.711343         0.016738
 C         0.083738         0.158743        -0.043902
 C        -0.997542         0.879863        -0.421395
 C        -2.107845        -0.292846        -0.341354
 C        -1.723490        -0.737086         1.160172
 C        -0.395529        -1.184627         0.445238
 O         0.565428        -2.011349         1.051055
 C        -1.365923        -1.551314        -0.843543
 O        -2.146472        -2.733941        -0.657224
 H         1.856472         0.830878         1.010889
 H         2.186267         0.150765        -0.589593
 H         1.536419         1.704071        -0.391858
 H        -1.089238         1.886466        -0.928422
 H        -3.164937        -0.013343        -0.581145
 H        -1.606955         0.094078         1.887549
 H        -2.354705        -1.607010         1.420188
 H         0.073889        -2.793782         1.493308
 H        -1.000500        -1.613081        -1.859221
 H        -1.649659        -3.387410        -1.296729
