19
Iteration:  2532
 C         1.518794         0.816264        -0.022488
 C         0.156097         0.254868         0.139305
 C        -1.067594         0.851585        -0.135127
 C        -2.142722        -0.272893        -0.022412
 C        -1.708266        -1.062402         1.198208
 C        -0.315777        -1.218006         0.391029
 O         0.444376        -2.248372         0.792345
 C        -1.456382        -1.259469        -0.894103
 O        -2.058988        -2.612521        -0.861737
 H         1.639239         1.420756        -1.011902
 H         1.687193         1.468594         0.853626
 H         2.278630         0.015450        -0.017149
 H        -1.238654         1.858853        -0.161918
 H        -3.212055        -0.066201        -0.208716
 H        -1.507424        -0.612463         2.244558
 H        -2.147943        -2.120195         1.226023
 H         1.172841        -2.336692         0.036849
 H        -0.957061        -1.113887        -1.893395
 H        -2.652921        -2.927468        -1.682325
