19
Iteration:  4323charge 0 multiplicity 1
 C         1.673877         0.502000        -0.091068
 C         0.178821         0.136231        -0.280083
 C        -0.809944         0.445571        -1.141462
 C        -1.997514        -0.503908        -0.842150
 C        -1.984334        -0.336407         0.750164
 C        -0.511077        -0.935482         0.553776
 O        -0.018442        -1.503470         1.766165
 C        -1.174695        -1.849088        -0.583584
 O        -1.970553        -2.857825        -0.154588
 H         2.004084         0.342647         0.993384
 H         2.308455        -0.188753        -0.728033
 H         1.831033         1.590438        -0.387851
 H        -0.790922         1.159909        -1.926209
 H        -2.920568        -0.492340        -1.445306
 H        -2.014003         0.688079         1.180848
 H        -2.692430        -1.005146         1.326496
 H         1.020434        -1.628397         1.612195
 H        -0.559179        -2.200605        -1.507838
 H        -1.841351        -2.851653         0.859088
