19
Iteration:   549
 C         1.493470         0.686712         0.210232
 C         0.141232         0.336125        -0.105710
 C        -1.136492         0.928975        -0.393953
 C        -2.168703        -0.143037        -0.021421
 C        -1.629557        -0.745543         1.328771
 C        -0.428807        -1.186024         0.285500
 O         0.450996        -2.274361         0.673085
 C        -1.474902        -1.415463        -0.826892
 O        -1.870083        -2.826457        -0.664250
 H         1.762962         1.703091        -0.154040
 H         1.422500         0.540897         1.320685
 H         2.049930        -0.157311        -0.206904
 H        -1.309499         1.921615        -0.800356
 H        -3.203309         0.043788        -0.265720
 H        -1.340361         0.058151         1.988977
 H        -2.169319        -1.649881         1.733701
 H         0.275340        -3.016866         0.082259
 H        -1.130295        -1.219967        -1.880060
 H        -2.160588        -3.020414        -1.554928
