19
Iteration:  1201charge 0 multiplicity 1
 C         1.480690         0.636924        -0.005074
 C         0.127193         0.230022        -0.035467
 C        -1.045596         0.736181        -0.578418
 C        -2.165433        -0.182517        -0.231472
 C        -1.693391        -0.617755         1.210306
 C        -0.456893        -1.067813         0.512543
 O         0.387580        -2.075128         1.028134
 C        -1.322494        -1.565492        -0.776927
 O        -1.922289        -2.845078        -0.664457
 H         1.980754         0.847198        -1.016745
 H         1.786423         1.554132         0.353564
 H         2.212513         0.008860         0.580917
 H        -1.013998         1.536128        -1.395649
 H        -3.154613        -0.113764        -0.724733
 H        -1.700319         0.187940         1.994629
 H        -2.474018        -1.306919         1.606748
 H         0.711159        -2.727812         0.297488
 H        -0.942934        -1.444867        -1.823615
 H        -2.895608        -2.722883        -0.701078
