19
Iteration:  4797
 C         1.643389         0.513045        -0.078242
 C         0.285684         0.026328        -0.353433
 C        -0.582144         0.134829        -1.439255
 C        -1.853871        -0.597167        -0.948178
 C        -2.042353        -0.166016         0.518254
 C        -0.608149        -0.840080         0.645267
 O        -0.110291        -1.219117         1.928637
 C        -1.191383        -1.901987        -0.396340
 O        -2.117636        -2.920460         0.093506
 H         2.343879        -0.298793        -0.109076
 H         1.802871         1.066122        -1.035694
 H         1.814707         1.259758         0.692989
 H        -0.198114         0.526288        -2.440933
 H        -2.702707        -0.458035        -1.658451
 H        -2.043413         1.033882         0.579990
 H        -2.798525        -0.791207         0.967437
 H         0.875030        -1.030186         1.902977
 H        -0.582236        -2.431485        -1.084401
 H        -1.662561        -3.526348         0.620081
