19
Iteration:  2070charge 0 multiplicity 1
 C         1.529292         0.552212        -0.124194
 C         0.124237         0.266229         0.058087
 C        -1.087730         0.865834        -0.176033
 C        -2.200676        -0.230436        -0.134806
 C        -1.801819        -0.846505         1.153251
 C        -0.400917        -1.166428         0.353436
 O         0.527021        -2.026020         0.909998
 C        -1.359838        -1.442228        -0.876163
 O        -1.980116        -2.673184        -0.702502
 H         1.813778         1.573599        -0.137860
 H         2.315513         0.047931         0.559130
 H         1.837231         0.209564        -1.133872
 H        -1.398347         1.893540        -0.328757
 H        -3.160118        -0.023905        -0.592014
 H        -1.747315        -0.313293         2.168742
 H        -2.300743        -1.787995         1.538418
 H         0.124091        -2.862410         1.253348
 H        -1.058048        -1.211506        -1.928153
 H        -1.764039        -3.179438        -1.632100
