19
Iteration:  4752
 C         1.628855         0.551697        -0.076903
 C         0.175298         0.033525        -0.318732
 C        -0.636751         0.223553        -1.430946
 C        -1.832755        -0.658719        -0.962263
 C        -1.938408        -0.176271         0.505314
 C        -0.560406        -0.924295         0.627055
 O        -0.006259        -1.192867         1.966252
 C        -1.164287        -1.992592        -0.398087
 O        -2.231531        -2.874433        -0.003269
 H         2.010290         0.320675         0.902006
 H         2.434879         0.193700        -0.755464
 H         1.613286         1.619303        -0.269524
 H        -0.484175         0.768315        -2.427426
 H        -2.637700        -0.880238        -1.632238
 H        -1.894602         1.005365         0.668257
 H        -2.757133        -0.722890         1.022023
 H         1.020266        -1.154996         1.998916
 H        -0.464004        -2.516869        -1.001515
 H        -2.078382        -3.094387         0.900341
