19
Iteration:  3034
 C         1.525499         0.645450         0.118581
 C         0.080429         0.181406        -0.093834
 C        -1.067738         0.742843        -0.484145
 C        -2.134794        -0.284643        -0.139082
 C        -1.692555        -0.878961         1.308314
 C        -0.462572        -1.226369         0.411908
 O         0.650330        -1.907069         0.947565
 C        -1.358470        -1.463819        -0.847021
 O        -2.211341        -2.595423        -0.858342
 H         2.334655        -0.172670         0.214708
 H         1.969737         1.428501        -0.541677
 H         1.557294         1.037696         1.157276
 H        -1.357121         1.627551        -1.164574
 H        -3.232207        -0.157665        -0.433551
 H        -1.472020        -0.097698         2.152051
 H        -2.282692        -1.709729         1.657447
 H         0.393459        -2.739712         1.304868
 H        -0.824561        -1.294551        -1.739043
 H        -1.751223        -3.328581        -1.215179
