19
Iteration:   396
 C         1.458092         0.609009        -0.109212
 C        -0.013547         0.274802         0.127641
 C        -1.119620         0.890380        -0.081339
 C        -2.147473        -0.254723        -0.054208
 C        -1.677435        -0.887241         1.312978
 C        -0.391764        -1.197875         0.407428
 O         0.543082        -2.238476         0.636899
 C        -1.385654        -1.336658        -0.863442
 O        -2.012077        -2.576548        -0.910776
 H         2.211425        -0.194692         0.231549
 H         1.688817         0.624647        -1.207154
 H         1.917384         1.489903         0.333722
 H        -1.431461         1.925556        -0.346215
 H        -3.202647         0.034556        -0.250615
 H        -1.535341        -0.184364         2.112508
 H        -2.077595        -1.819813         1.745033
 H         0.434810        -2.554644         1.595385
 H        -0.896230        -1.080920        -1.844820
 H        -1.242065        -3.235578        -0.755914
