19
Iteration:  3788
 C         1.531798         0.677266        -0.076116
 C         0.114991         0.181433        -0.218274
 C        -0.885094         0.628996        -0.928284
 C        -1.946658        -0.274752        -0.572257
 C        -1.847231        -0.427119         0.893760
 C        -0.461148        -1.051382         0.574517
 O         0.158971        -1.846075         1.527603
 C        -1.238442        -1.753207        -0.670776
 O        -1.999471        -2.920358        -0.386650
 H         1.414182         1.740631         0.156528
 H         2.194541         0.153186         0.655486
 H         2.149446         0.674242        -1.042432
 H        -0.733109         1.316380        -1.741532
 H        -2.981789        -0.128722        -1.024605
 H        -1.748370         0.466252         1.499904
 H        -2.680239        -1.058853         1.282182
 H         0.518758        -2.680867         1.196147
 H        -0.613821        -1.931149        -1.631737
 H        -2.257102        -2.930015         0.506952
