19
Iteration:  3097
 C         1.478564         0.712535        -0.037930
 C         0.093918         0.173587         0.033360
 C        -1.025040         0.739841        -0.381929
 C        -2.110423        -0.278175        -0.303492
 C        -1.807703        -0.809331         1.190381
 C        -0.447903        -1.090736         0.468577
 O         0.499612        -2.135066         0.913350
 C        -1.304652        -1.414149        -0.784600
 O        -1.988131        -2.650715        -0.654220
 H         1.836328         0.941714        -1.114158
 H         1.703135         1.710127         0.444137
 H         2.159946        -0.073771         0.342844
 H        -1.184917         1.833984        -0.678223
 H        -3.130102        -0.061117        -0.683310
 H        -1.872764        -0.061218         1.999025
 H        -2.210573        -1.764425         1.491152
 H        -0.099608        -2.811836         1.228004
 H        -0.722487        -1.443637        -1.767654
 H        -2.138983        -2.965266        -1.489822
