19
Iteration:  4555charge 0 multiplicity 1
 C         1.604261         0.424474        -0.081087
 C         0.167130         0.078943        -0.271457
 C        -0.731703         0.299523        -1.230455
 C        -1.963852        -0.553994        -0.966196
 C        -2.076891        -0.239291         0.558509
 C        -0.589985        -0.845284         0.626498
 O        -0.032793        -1.493762         1.719586
 C        -1.139074        -1.819846        -0.504338
 O        -1.946376        -2.738845         0.093592
 H         2.092995        -0.255682         0.627457
 H         2.300476         0.521754        -0.974726
 H         1.725166         1.496979         0.324647
 H        -0.361044         0.464721        -2.243516
 H        -2.780674        -0.448375        -1.683726
 H        -2.150024         0.760533         0.943097
 H        -2.747210        -1.023716         1.074338
 H         0.980215        -1.251788         1.865472
 H        -0.258146        -2.252223        -1.134459
 H        -1.358027        -3.277664         0.767878
