19
Iteration:   424charge 0 multiplicity 1
 C         1.501864         0.637625        -0.129182
 C         0.093534         0.199225         0.063266
 C        -1.148651         0.849559        -0.294023
 C        -2.137563        -0.268172         0.076599
 C        -1.584256        -0.976945         1.372579
 C        -0.404131        -1.174638         0.527144
 O         0.606459        -2.091023         0.814630
 C        -1.460478        -1.367337        -0.797361
 O        -2.154863        -2.553591        -1.104635
 H         2.123071        -0.264535        -0.121801
 H         1.595124         1.265517        -1.048683
 H         1.875640         1.294930         0.714998
 H        -1.327717         1.723870        -0.868052
 H        -3.162748         0.072101        -0.117915
 H        -1.517672        -0.501888         2.424942
 H        -1.975457        -1.990637         1.644017
 H         0.267233        -2.779572         1.443772
 H        -0.975158        -0.985134        -1.694875
 H        -1.415846        -3.171115        -1.450386
