19
Iteration:  3720
 C         1.522162         0.512788         0.117108
 C         0.097117         0.133721        -0.138826
 C        -0.912873         0.585034        -0.956696
 C        -2.086566        -0.313960        -0.619906
 C        -1.853527        -0.392508         1.009803
 C        -0.526297        -1.054073         0.569720
 O         0.448186        -1.763113         1.273236
 C        -1.334844        -1.665738        -0.705125
 O        -1.917269        -2.921145        -0.371781
 H         2.205933         0.515479        -0.775196
 H         1.626816         1.619250         0.373660
 H         2.134525         0.077809         0.887122
 H        -1.049587         1.438550        -1.681381
 H        -3.062885        -0.194347        -1.042256
 H        -1.808852         0.575408         1.385387
 H        -2.677516        -0.964704         1.528477
 H         0.031019        -2.025265         2.082090
 H        -0.787426        -1.708646        -1.748486
 H        -2.919104        -2.919938        -0.610056
