19
Iteration:   297charge 0 multiplicity 1
 C         1.437320         0.795208         0.229802
 C         0.090350         0.220912        -0.016344
 C        -1.066422         0.787492        -0.313865
 C        -2.160494        -0.255642         0.021805
 C        -1.442834        -0.977094         1.288627
 C        -0.360906        -1.214973         0.301958
 O         0.675533        -2.223671         0.605717
 C        -1.532771        -1.433873        -0.823344
 O        -2.324438        -2.544697        -0.900775
 H         1.572914         1.693549         0.933682
 H         2.220419         0.119537         0.623305
 H         2.058464         1.126991        -0.606873
 H        -1.264292         1.797288        -0.396574
 H        -3.237264        -0.001173        -0.002623
 H        -1.298503        -0.219876         2.046581
 H        -1.931835        -1.884176         1.600568
 H         0.793882        -1.908092         1.556777
 H        -1.327818        -1.092025        -1.852646
 H        -1.742557        -3.274727        -1.342329
