19
Iteration:  3649
 C         1.587789         0.603083        -0.150838
 C         0.132175         0.171843        -0.010407
 C        -0.868351         0.665821        -0.798434
 C        -2.023419        -0.356543        -0.519066
 C        -1.956368        -0.496031         1.008618
 C        -0.531894        -1.038725         0.603343
 O         0.314186        -1.813682         1.344493
 C        -1.237037        -1.642453        -0.668907
 O        -2.043422        -2.832110        -0.447443
 H         2.389908         0.161268         0.451835
 H         1.876310         0.347547        -1.191041
 H         1.606136         1.724880        -0.123684
 H        -1.008109         1.420199        -1.569653
 H        -2.906717        -0.133434        -1.208515
 H        -1.985918         0.447555         1.693314
 H        -2.581183        -1.321566         1.349992
 H         0.105719        -2.709333         1.103632
 H        -0.548958        -1.742108        -1.467627
 H        -1.480843        -3.604270        -0.811926
