19
Iteration:  2587charge 0 multiplicity 1
 C         1.491570         0.546670        -0.017555
 C         0.081583         0.195926         0.097812
 C        -1.133794         0.809405        -0.139622
 C        -2.204891        -0.245047         0.090495
 C        -1.720977        -0.910030         1.399491
 C        -0.361266        -1.221791         0.389582
 O         0.652960        -2.030002         0.783684
 C        -1.519927        -1.365086        -0.834591
 O        -1.992073        -2.607283        -1.158172
 H         1.666125         1.398048        -0.786540
 H         1.956409         0.999771         0.865726
 H         2.217454        -0.216413        -0.365580
 H        -1.326612         1.847938        -0.203264
 H        -3.223695         0.130431         0.039794
 H        -1.237251        -0.286096         2.240013
 H        -2.262608        -1.737524         1.921603
 H         0.411367        -2.918092         0.444105
 H        -1.128220        -0.887344        -1.793102
 H        -2.191511        -2.719747        -2.080814
