19
Iteration:  3023
 C         1.481498         0.655487         0.128572
 C         0.079021         0.238809        -0.098154
 C        -1.108085         0.835227        -0.445586
 C        -2.120892        -0.278965        -0.229030
 C        -1.659320        -0.879624         1.304140
 C        -0.391778        -1.175661         0.495526
 O         0.630684        -2.011145         0.868425
 C        -1.317176        -1.540622        -0.742836
 O        -2.224776        -2.609220        -0.873883
 H         2.019392        -0.359780         0.325123
 H         1.932455         1.179922        -0.752944
 H         1.505911         1.354386         0.989383
 H        -1.188908         1.823704        -1.056513
 H        -3.157082        -0.061742        -0.657544
 H        -1.559181        -0.064965         2.151212
 H        -2.236075        -1.730388         1.634832
 H         0.367979        -2.494710         1.635248
 H        -0.891230        -1.380778        -1.688700
 H        -1.808281        -3.454773        -1.328243
