19
Iteration:  1166charge 0 multiplicity 1
 C         1.569620         0.604480        -0.233246
 C         0.088803         0.237546        -0.062208
 C        -1.063471         0.905340        -0.377791
 C        -2.108674        -0.178089        -0.295328
 C        -1.840326        -0.782763         1.145434
 C        -0.458019        -1.146990         0.516682
 O         0.387365        -2.049082         1.142260
 C        -1.240884        -1.521311        -0.803862
 O        -1.914808        -2.752827        -0.549782
 H         1.803282         0.255381        -1.303329
 H         1.565895         1.615779         0.005747
 H         2.128664        -0.110575         0.413857
 H        -1.093466         1.865492        -0.868493
 H        -3.064553         0.045950        -0.799091
 H        -1.917541        -0.038696         1.946544
 H        -2.499055        -1.748255         1.205744
 H         0.248824        -2.932757         0.637170
 H        -0.826649        -1.325885        -1.798295
 H        -2.225137        -3.074464        -1.447726
