19
Iteration:  3678charge 0 multiplicity 1
 C         1.613205         0.616613        -0.075191
 C         0.124463         0.177242        -0.170749
 C        -0.972197         0.754717        -0.829744
 C        -2.041501        -0.311985        -0.558211
 C        -1.848113        -0.513871         0.955439
 C        -0.507441        -1.101165         0.542979
 O         0.337539        -1.858669         1.434248
 C        -1.307682        -1.659364        -0.740557
 O        -1.965203        -2.843219        -0.351957
 H         2.267754        -0.249708         0.033920
 H         1.859676         1.179014        -1.008489
 H         1.606197         1.254465         0.827199
 H        -1.036997         1.505229        -1.671389
 H        -3.035661        -0.126003        -1.022188
 H        -1.747245         0.295528         1.595033
 H        -2.498957        -1.392927         1.272911
 H        -0.271369        -2.382328         2.099079
 H        -0.638134        -1.813062        -1.635261
 H        -2.148827        -3.446672        -1.149343
