19
Iteration:   490charge 0 multiplicity 1
 C         1.489496         0.632618         0.027183
 C         0.098258         0.277000         0.085769
 C        -1.125995         0.891319        -0.247768
 C        -2.129354        -0.240338        -0.108657
 C        -1.735201        -0.935945         1.156632
 C        -0.423271        -1.184155         0.389013
 O         0.674388        -2.129980         0.729026
 C        -1.355863        -1.388282        -0.806455
 O        -2.076519        -2.661504        -0.736291
 H         1.885736         0.709419        -0.963812
 H         1.803697         1.661105         0.319578
 H         2.234239         0.014177         0.561878
 H        -1.343869         1.890290        -0.584625
 H        -3.191008        -0.018816        -0.368484
 H        -1.873529        -0.343967         2.134930
 H        -2.259459        -1.907605         1.318268
 H         0.206950        -2.971122         0.825227
 H        -0.894136        -1.301022        -1.775260
 H        -2.900542        -2.559555        -1.177193
