19
Iteration:  2829charge 0 multiplicity 1
 C         1.459004         0.709523        -0.009810
 C         0.087815         0.146410         0.047915
 C        -0.998754         0.838859        -0.287254
 C        -2.190328        -0.135654         0.022755
 C        -1.728155        -0.922372         1.263359
 C        -0.399150        -1.187610         0.446727
 O         0.458234        -2.195826         0.861170
 C        -1.463862        -1.407432        -0.826428
 O        -1.922840        -2.683135        -1.083357
 H         1.912250         0.602673        -1.023691
 H         1.413188         1.853620         0.127909
 H         2.247516         0.320647         0.769906
 H        -1.105230         1.838611        -0.463233
 H        -3.239077         0.203909        -0.051789
 H        -1.625028        -0.375293         2.252993
 H        -2.353697        -1.794170         1.398839
 H         1.316394        -1.867666         0.928645
 H        -1.003632        -1.114175        -1.849752
 H        -2.289225        -2.981625        -0.312788
