19
Iteration:  2464
 C         1.511053         0.611536         0.218887
 C         0.088674         0.238877         0.002472
 C        -1.152459         0.776145        -0.317907
 C        -2.197349        -0.253817         0.084133
 C        -1.651246        -0.917958         1.356937
 C        -0.448229        -1.149865         0.366456
 O         0.589227        -2.181836         0.503250
 C        -1.394770        -1.369848        -0.863466
 O        -2.031568        -2.593771        -0.853912
 H         2.081330         1.462122        -0.253653
 H         1.545412         0.887073         1.316507
 H         2.230252        -0.177512         0.085112
 H        -1.384374         1.730861        -0.937871
 H        -3.296356        -0.070795        -0.037625
 H        -1.273866        -0.246723         2.130292
 H        -2.402965        -1.662702         1.747172
 H         1.279299        -1.896110         1.016249
 H        -1.165867        -1.058413        -1.927970
 H        -2.562987        -2.650970        -1.588862
