19
Iteration:  1694charge 0 multiplicity 1
 C         1.537019         0.718171         0.041755
 C         0.100842         0.198302        -0.042499
 C        -0.976269         0.808508        -0.501152
 C        -2.130882        -0.230985        -0.312042
 C        -1.733312        -0.596205         1.169084
 C        -0.402303        -1.158373         0.459188
 O         0.360554        -2.169544         0.989080
 C        -1.320040        -1.502142        -0.811366
 O        -2.122410        -2.854560        -0.682961
 H         1.807239         1.117405         1.110196
 H         2.341822         0.022427        -0.126632
 H         1.664785         1.619555        -0.615971
 H        -1.014740         1.923350        -0.729483
 H        -3.136685        -0.066365        -0.720536
 H        -1.664289         0.380306         1.769629
 H        -2.382508        -1.348815         1.719694
 H         1.066766        -1.785132         1.529073
 H        -0.912287        -1.550507        -1.869372
 H        -1.454229        -3.652033        -0.878907
