19
Iteration:  1676charge 0 multiplicity 1
 C         1.498143         0.676014         0.022965
 C         0.119860         0.220872        -0.020652
 C        -0.977052         0.694632        -0.602991
 C        -2.066881        -0.272588        -0.252742
 C        -1.749988        -0.587854         1.246218
 C        -0.491853        -1.115524         0.541315
 O         0.403074        -2.105928         1.059931
 C        -1.399966        -1.560733        -0.752791
 O        -2.073521        -2.718734        -0.838274
 H         1.987112         0.574189         0.922360
 H         2.140312         0.032182        -0.691171
 H         1.479114         1.688870        -0.372536
 H        -1.099607         1.463920        -1.331199
 H        -3.092563        -0.034510        -0.513015
 H        -1.491647         0.142264         1.949909
 H        -2.316077        -1.433256         1.653710
 H         1.195669        -1.818381         1.513055
 H        -0.814706        -1.444684        -1.650685
 H        -1.421151        -3.502051        -1.077327
