19
Iteration:  2583charge 0 multiplicity 1
 C         1.479472         0.563383        -0.011756
 C         0.051929         0.191322         0.078519
 C        -1.125070         0.778304        -0.155097
 C        -2.186365        -0.238040         0.072407
 C        -1.698075        -0.884597         1.446856
 C        -0.371448        -1.226579         0.417879
 O         0.672568        -2.058238         0.803971
 C        -1.492116        -1.381789        -0.852008
 O        -2.003137        -2.580501        -1.165751
 H         1.579368         1.306955        -0.854003
 H         1.904036         1.069378         0.900106
 H         2.177510        -0.177169        -0.365416
 H        -1.320425         1.848031        -0.132365
 H        -3.256789         0.111886         0.083775
 H        -1.397259        -0.217947         2.175469
 H        -2.221788        -1.749337         1.901861
 H         0.407886        -2.901945         0.246279
 H        -1.208782        -0.899254        -1.831543
 H        -2.228079        -2.660719        -2.177250
