19
Iteration:  2547
 C         1.499258         0.792748        -0.023408
 C         0.075921         0.279794         0.143560
 C        -1.149497         0.854876        -0.184563
 C        -2.102625        -0.242204         0.024114
 C        -1.582211        -1.062383         1.311687
 C        -0.412016        -1.207687         0.402813
 O         0.500266        -2.254033         0.821190
 C        -1.331434        -1.411440        -0.855741
 O        -2.111208        -2.554887        -0.986364
 H         1.491703         1.298776        -0.935616
 H         1.857414         1.464012         0.760543
 H         2.119851        -0.122010        -0.036950
 H        -1.320419         1.865152        -0.739973
 H        -3.145494         0.003050        -0.103555
 H        -1.596604        -0.463428         2.242851
 H        -2.141171        -1.959001         1.428658
 H         0.996005        -2.647860         0.041474
 H        -1.048221        -0.958750        -1.766199
 H        -2.367309        -2.452194        -1.940030
