19
Iteration:   632
 C         1.499417         0.675959        -0.106080
 C         0.108304         0.207152         0.004056
 C        -1.110181         0.811027        -0.240307
 C        -2.076667        -0.319392        -0.053248
 C        -1.626280        -1.007769         1.269116
 C        -0.395077        -1.197890         0.407791
 O         0.537988        -2.070375         0.923589
 C        -1.356560        -1.434195        -0.840928
 O        -2.229182        -2.501385        -0.956700
 H         1.672067         1.522197         0.527922
 H         2.245740        -0.068425         0.269942
 H         1.734472         0.970953        -1.151687
 H        -1.263447         1.833125        -0.527686
 H        -3.151281        -0.222007        -0.323537
 H        -1.543517        -0.422351         2.198609
 H        -2.167718        -1.908079         1.529125
 H         0.811501        -1.739026         1.771808
 H        -1.023883        -1.146640        -1.829269
 H        -1.737202        -3.353318        -1.105317
