19
Iteration:    41
 C         1.466779         0.781248         0.244644
 C         0.085892         0.237962         0.205527
 C        -1.078388         0.943209        -0.014862
 C        -2.120358        -0.172601        -0.032296
 C        -1.666155        -0.999160         1.202342
 C        -0.362051        -1.214347         0.200099
 O         0.558063        -2.323270         0.279412
 C        -1.454057        -1.315077        -0.926851
 O        -2.076508        -2.626945        -0.645376
 H         1.996954        -0.067940         0.673964
 H         1.754730         1.098624        -0.786281
 H         1.464687         1.746478         0.921616
 H        -1.106262         1.964474        -0.490332
 H        -3.175918         0.111454        -0.174270
 H        -1.309425        -0.578718         2.166676
 H        -2.363774        -1.909378         1.256432
 H         0.530756        -2.704381         1.213249
 H        -1.212614        -1.195046        -2.024758
 H        -1.703357        -3.263752        -1.334531
