19
Iteration:  4160charge 0 multiplicity 1
 C         1.582218         0.357543        -0.021514
 C         0.120848         0.055350        -0.313618
 C        -0.924126         0.522480        -1.099638
 C        -1.973764        -0.483904        -0.728694
 C        -1.903021        -0.160018         0.810447
 C        -0.561896        -0.955255         0.572552
 O         0.074273        -1.486772         1.637141
 C        -1.202944        -1.771683        -0.524418
 O        -1.879286        -2.913949        -0.182770
 H         2.173032        -0.088517        -0.803037
 H         1.739932         1.433654        -0.149664
 H         2.010209         0.097701         0.956411
 H        -0.744703         1.247919        -1.969149
 H        -2.935405        -0.461434        -1.187886
 H        -1.814602         0.905210         1.186629
 H        -2.673230        -0.673519         1.360700
 H         0.748229        -2.210514         1.348300
 H        -0.455515        -1.996765        -1.283464
 H        -1.788931        -3.472006        -0.913313
