19
Iteration:  4373
 C         1.557243         0.439809        -0.171293
 C         0.162809         0.087823        -0.281913
 C        -0.764557         0.380601        -1.201930
 C        -1.969042        -0.454461        -0.837891
 C        -1.989834        -0.122325         0.754148
 C        -0.621066        -0.889269         0.676256
 O        -0.005215        -1.497694         1.841483
 C        -1.154622        -1.793493        -0.530444
 O        -1.806312        -3.023678        -0.221992
 H         2.100131        -0.507086        -0.244187
 H         1.745946         1.084649        -1.016195
 H         1.833025         0.923357         0.758683
 H        -0.792211         1.223814        -1.975058
 H        -2.885564        -0.434120        -1.413048
 H        -1.748535         0.977200         0.973084
 H        -2.793559        -0.512187         1.359454
 H         0.568743        -2.155635         1.513274
 H        -0.421316        -2.118007        -1.210643
 H        -2.240617        -2.788146         0.613148
