19
Iteration:  4981
 C         1.514708         0.538426        -0.028010
 C         0.236761        -0.025700        -0.297978
 C        -0.533901         0.089288        -1.499062
 C        -1.763588        -0.774040        -1.095727
 C        -2.015181        -0.104623         0.321314
 C        -0.639290        -0.780818         0.667232
 O        -0.141265        -1.236685         1.843847
 C        -1.165454        -1.958959        -0.323862
 O        -2.062370        -2.786490         0.252257
 H         1.694046         1.033972         0.953942
 H         2.255727        -0.367542        -0.001088
 H         1.861543         1.283853        -0.787539
 H        -0.191764         0.500562        -2.458763
 H        -2.647092        -0.804027        -1.792071
 H        -2.136803         0.998973         0.360643
 H        -2.741274        -0.685555         0.948413
 H         0.429375        -0.506489         2.274617
 H        -0.269733        -2.450245        -0.860878
 H        -1.586719        -3.292217         1.056480
