19
Iteration:  3445
 C         1.522812         0.596102         0.034622
 C         0.108251         0.199094        -0.096988
 C        -0.996263         0.763924        -0.613731
 C        -2.102881        -0.290638        -0.449641
 C        -1.874909        -0.646693         1.088109
 C        -0.469557        -1.078759         0.501677
 O         0.463402        -1.894546         1.108038
 C        -1.268566        -1.656139        -0.720048
 O        -2.056616        -2.777532        -0.570617
 H         1.884217         0.406827         1.081928
 H         2.184138        -0.160286        -0.545750
 H         1.653584         1.609429        -0.346071
 H        -0.937907         1.637230        -1.372812
 H        -3.142297        -0.075462        -0.847823
 H        -1.927383         0.230043         1.833349
 H        -2.515943        -1.455907         1.313908
 H         0.530868        -1.739668         2.083996
 H        -0.581228        -1.698889        -1.559124
 H        -1.648168        -3.505740        -1.039570
