19
Iteration:  4787
 C         1.678891         0.530068        -0.138775
 C         0.252435        -0.041822        -0.336430
 C        -0.550140         0.173974        -1.374288
 C        -1.856156        -0.604427        -0.980920
 C        -2.028162        -0.220814         0.539993
 C        -0.614079        -0.875030         0.635945
 O        -0.104832        -1.178754         1.912039
 C        -1.174404        -1.942402        -0.414414
 O        -2.158212        -2.841556         0.046069
 H         2.483281        -0.090658         0.259399
 H         2.008681         0.996058        -1.099741
 H         1.569698         1.306172         0.645140
 H        -0.414857         0.396427        -2.448123
 H        -2.758317        -0.886181        -1.579878
 H        -2.185885         0.889108         0.987168
 H        -2.731298        -0.823104         1.101580
 H         0.888112        -0.904956         1.960209
 H        -0.347565        -2.349192        -0.992537
 H        -1.787240        -3.296518         0.820278
