19
Iteration:  1730charge 0 multiplicity 1
 C         1.514859         0.715996         0.184150
 C         0.101049         0.234790        -0.005213
 C        -0.945970         0.766035        -0.617379
 C        -2.126237        -0.246752        -0.328034
 C        -1.791946        -0.810715         1.125471
 C        -0.416285        -1.110928         0.384799
 O         0.434410        -2.153526         0.788684
 C        -1.292868        -1.446919        -0.847814
 O        -2.142687        -2.676369        -0.451294
 H         1.416485         1.612835         0.733251
 H         2.162892        -0.115893         0.681747
 H         1.968805         0.961670        -0.787750
 H        -0.974156         1.702980        -1.114766
 H        -3.133302        -0.253186        -0.719465
 H        -1.636041        -0.086271         1.915749
 H        -2.282008        -1.751935         1.415446
 H         0.648379        -2.177261         1.754392
 H        -0.949797        -1.427217        -1.919785
 H        -1.369164        -3.270450         0.007366
