19
Iteration:  1423charge 0 multiplicity 1
 C         1.536498         0.617601        -0.076481
 C         0.091321         0.260417        -0.098330
 C        -1.016623         0.772060        -0.595572
 C        -2.126565        -0.256383        -0.385595
 C        -1.735817        -0.726295         1.142279
 C        -0.425357        -1.071931         0.478544
 O         0.293237        -2.005687         1.284012
 C        -1.311183        -1.590105        -0.807686
 O        -2.026717        -2.742883        -0.628098
 H         1.718249         1.634991         0.055822
 H         2.012739         0.082905         0.802195
 H         2.098143         0.274542        -0.947164
 H        -1.154831         1.616055        -1.296573
 H        -3.121673         0.076775        -0.769237
 H        -1.589409         0.009790         1.936537
 H        -2.299737        -1.594622         1.386017
 H         1.259436        -2.214228         1.064053
 H        -0.854967        -1.384550        -1.756602
 H        -1.454394        -3.451642        -0.719100
