19
Iteration:  2178
 C         1.496510         0.620035         0.107253
 C         0.122560         0.217436        -0.016284
 C        -1.050570         0.902275        -0.257208
 C        -2.157695        -0.161364        -0.169857
 C        -1.762591        -0.951337         1.238583
 C        -0.390515        -1.214749         0.324591
 O         0.579992        -2.106508         0.668281
 C        -1.449243        -1.383868        -0.849023
 O        -1.935915        -2.669824        -0.585892
 H         2.096126         0.348259        -0.728656
 H         1.470683         1.782308         0.162986
 H         1.833474         0.150224         1.069731
 H        -1.205328         1.898724        -0.851118
 H        -3.146423         0.062464        -0.585769
 H        -1.880433        -0.141419         2.033774
 H        -2.529047        -1.753645         1.414545
 H         0.059322        -2.816554         0.991119
 H        -1.122812        -1.240910        -1.883938
 H        -2.526407        -3.073569        -1.353189
