19
Iteration:  4748charge 0 multiplicity 1
 C         1.654900         0.539876        -0.087630
 C         0.157414         0.062720        -0.344985
 C        -0.644742         0.214826        -1.403369
 C        -1.829844        -0.662639        -0.984887
 C        -1.922408        -0.131450         0.520759
 C        -0.587405        -0.903270         0.653157
 O        -0.002123        -1.205404         1.946599
 C        -1.177705        -1.983286        -0.401142
 O        -2.224022        -2.904752         0.006408
 H         1.866367         0.488760         1.018076
 H         2.485493         0.168534        -0.671455
 H         1.584769         1.619902        -0.262807
 H        -0.350901         0.644188        -2.299402
 H        -2.651898        -0.766690        -1.708600
 H        -1.814701         0.859145         0.637171
 H        -2.755219        -0.739011         0.947968
 H         0.959993        -1.222205         1.880459
 H        -0.468920        -2.580457        -1.035562
 H        -2.022869        -3.205754         0.980879
