19
Iteration:  1107
 C         1.542695         0.500160        -0.100509
 C        -0.032226         0.195813        -0.096762
 C        -1.132828         0.745599        -0.512802
 C        -2.134627        -0.282007        -0.197598
 C        -1.691261        -0.656681         1.250169
 C        -0.427570        -1.118228         0.566847
 O         0.546469        -2.008871         1.063754
 C        -1.260347        -1.518635        -0.662458
 O        -2.066592        -2.628548        -0.942809
 H         2.049399        -0.332454        -0.489482
 H         1.856216         1.477740        -0.714335
 H         1.579000         0.753231         0.919349
 H        -1.216420         1.645416        -1.166962
 H        -3.180994        -0.133426        -0.463633
 H        -1.685849         0.053099         2.092178
 H        -2.328593        -1.461397         1.536442
 H         0.404923        -2.077787         1.983772
 H        -0.759262        -1.384082        -1.634925
 H        -1.722774        -3.594242        -0.841929
