19
Iteration:  1692
 C         1.537098         0.712588         0.032586
 C         0.088817         0.186325        -0.029725
 C        -0.967008         0.812132        -0.515862
 C        -2.125116        -0.247044        -0.311296
 C        -1.722437        -0.596830         1.190782
 C        -0.397342        -1.148160         0.486619
 O         0.360324        -2.165103         0.993632
 C        -1.331844        -1.515821        -0.823695
 O        -2.117804        -2.852278        -0.701923
 H         1.814851         1.106141         1.133225
 H         2.314716         0.028779        -0.214675
 H         1.655113         1.643966        -0.566375
 H        -1.028218         1.901727        -0.778246
 H        -3.156518        -0.018976        -0.681677
 H        -1.726273         0.423002         1.744696
 H        -2.358749        -1.302987         1.742943
 H         1.029821        -1.742242         1.482174
 H        -0.891805        -1.515370        -1.868399
 H        -1.491271        -3.564390        -0.892302
