19
Iteration:  2578charge 0 multiplicity 1
 C         1.467916         0.616102        -0.014578
 C         0.020454         0.159835         0.057984
 C        -1.121767         0.772212        -0.164004
 C        -2.171081        -0.242238         0.067678
 C        -1.642448        -0.868981         1.465152
 C        -0.413146        -1.217143         0.466993
 O         0.687158        -2.119668         0.814348
 C        -1.438508        -1.367820        -0.869296
 O        -2.035694        -2.576402        -1.177148
 H         1.443277         1.244741        -0.889170
 H         1.787343         1.090366         0.893550
 H         2.099730        -0.280655        -0.278933
 H        -1.314123         1.888772        -0.175336
 H        -3.207940         0.021514         0.016386
 H        -1.573260         0.032730         2.247630
 H        -2.181557        -1.771136         1.774301
 H         0.575161        -2.799111         0.130243
 H        -1.194086        -0.867200        -1.788586
 H        -2.227168        -2.515457        -2.123453
