19
Iteration:  1523
 C         1.544420         0.684920         0.123563
 C         0.155069         0.213709        -0.169940
 C        -0.961310         0.780791        -0.569880
 C        -2.067656        -0.228882        -0.334618
 C        -1.788670        -0.689209         1.111773
 C        -0.453991        -1.167930         0.289371
 O         0.461592        -1.966924         1.037151
 C        -1.407190        -1.614977        -0.856241
 O        -2.110026        -2.798990        -0.524945
 H         2.220154         0.858842        -0.685676
 H         1.440734         1.620197         0.776669
 H         2.026146        -0.110254         0.640863
 H        -1.162889         1.809281        -0.878145
 H        -3.070498         0.107874        -0.611576
 H        -1.573402         0.005365         1.859113
 H        -2.533518        -1.458711         1.450162
 H         0.129710        -2.153835         1.895440
 H        -0.824766        -1.735025        -1.742003
 H        -1.488145        -3.297362         0.084537
