19
Iteration:  4295
 C         1.475452         0.519743        -0.030727
 C         0.145185         0.103800        -0.262658
 C        -0.745892         0.456249        -1.220944
 C        -1.911431        -0.428601        -0.879886
 C        -1.953953        -0.210958         0.782361
 C        -0.581930        -0.935330         0.584199
 O         0.145728        -1.617276         1.655914
 C        -1.172276        -1.885356        -0.522323
 O        -2.037831        -2.908263        -0.149040
 H         1.554856         1.148905         0.856364
 H         2.072914        -0.301752         0.348463
 H         1.784079         1.072770        -0.901393
 H        -0.591167         1.266338        -1.948541
 H        -2.826170        -0.412686        -1.522445
 H        -1.905061         0.771246         1.217723
 H        -2.742114        -0.764585         1.364973
 H         1.135383        -1.247287         1.703905
 H        -0.514202        -2.214244        -1.275611
 H        -1.731268        -3.211513         0.789268
