19
Iteration:  3149charge 0 multiplicity 1
 C         1.579502         0.595339         0.001654
 C         0.087158         0.199889        -0.069837
 C        -1.065307         0.890436        -0.436624
 C        -2.177782        -0.271009        -0.251931
 C        -1.776172        -0.669002         1.245336
 C        -0.516298        -1.102224         0.431161
 O         0.421606        -2.050608         0.993803
 C        -1.435113        -1.430899        -0.784381
 O        -1.773927        -2.856429        -0.717674
 H         1.824606         1.609409        -0.128973
 H         2.000776         0.292266         0.984501
 H         2.179501         0.010835        -0.684562
 H        -1.327068         2.002949        -0.577711
 H        -3.175146        -0.176980        -0.661959
 H        -1.622551         0.164251         1.901285
 H        -2.190423        -1.593063         1.773419
 H         0.157521        -2.832578         0.600376
 H        -1.015457        -1.389790        -1.800562
 H        -2.499599        -2.990468        -1.319885
