19
Iteration:   915charge 0 multiplicity 1
 C         1.550002         0.629379        -0.159094
 C         0.115814         0.136716         0.011969
 C        -1.067041         0.817963        -0.360467
 C        -2.162975        -0.218619        -0.162921
 C        -1.806032        -0.821323         1.243424
 C        -0.471003        -1.201619         0.507698
 O         0.655981        -1.970202         1.110262
 C        -1.386138        -1.493777        -0.825345
 O        -2.106358        -2.668512        -0.861890
 H         1.461114         1.741228        -0.511612
 H         1.870162         0.610224         0.804966
 H         2.139149         0.017860        -0.892137
 H        -1.205057         1.753157        -0.994094
 H        -3.099128         0.099426        -0.609161
 H        -1.723547        -0.103024         2.052749
 H        -2.488413        -1.625620         1.552845
 H         0.480342        -2.883290         0.931299
 H        -0.801373        -1.268023        -1.738369
 H        -1.657841        -3.169107        -1.498532
