19
Iteration:  2090
 C         1.535864         0.606879        -0.188203
 C         0.073722         0.216198         0.084814
 C        -1.038160         0.886071        -0.260704
 C        -2.138972        -0.179325        -0.126908
 C        -1.735036        -0.954790         1.234402
 C        -0.461842        -1.139643         0.541212
 O         0.545323        -1.998481         0.962327
 C        -1.389335        -1.430820        -0.815812
 O        -2.025598        -2.734425        -0.872236
 H         1.662276         1.606932        -0.541815
 H         2.234943         0.611226         0.713773
 H         2.086781        -0.058050        -0.897669
 H        -1.025411         1.724461        -0.872246
 H        -3.216902        -0.037162        -0.304104
 H        -1.672670        -0.248026         2.143535
 H        -2.462169        -1.755363         1.494250
 H         0.207318        -2.849638         0.814767
 H        -0.980689        -1.057509        -1.746625
 H        -2.260656        -3.126023        -1.737986
