19
Iteration:   470charge 0 multiplicity 1
 C         1.454313         0.656850        -0.053245
 C         0.116961         0.230176         0.148813
 C        -1.095756         0.847120        -0.171061
 C        -2.081306        -0.256294        -0.168492
 C        -1.605946        -1.028054         1.251034
 C        -0.385649        -1.224445         0.376831
 O         0.649605        -1.967221         0.890799
 C        -1.403983        -1.448203        -0.890714
 O        -2.231141        -2.609620        -0.869356
 H         1.840805         0.215889        -0.947694
 H         1.553440         1.796898        -0.105387
 H         2.241767         0.368939         0.683011
 H        -1.146240         1.883011        -0.516369
 H        -3.180069        -0.132360        -0.257992
 H        -1.424446        -0.398024         2.188876
 H        -2.335613        -1.813526         1.650701
 H         0.465693        -2.866535         0.738703
 H        -0.927659        -1.367298        -1.888127
 H        -2.723467        -2.643467        -1.680512
