19
Iteration:  3458charge 0 multiplicity 1
 C         1.544323         0.575081         0.051676
 C         0.048122         0.252008        -0.127919
 C        -1.013704         0.801553        -0.781842
 C        -2.050441        -0.276126        -0.390310
 C        -1.865305        -0.623952         1.057080
 C        -0.486061        -1.061536         0.576647
 O         0.409434        -1.996364         1.113603
 C        -1.189674        -1.641784        -0.695040
 O        -2.048175        -2.805876        -0.538027
 H         1.884958         0.167176         1.033890
 H         2.185761         0.362916        -0.830800
 H         1.649097         1.639483         0.290877
 H        -1.165190         1.784097        -1.391454
 H        -3.081007        -0.221116        -0.742510
 H        -1.937481         0.250541         1.789098
 H        -2.375554        -1.501165         1.459724
 H         0.860171        -1.728374         2.000271
 H        -0.712711        -1.709409        -1.608801
 H        -1.900253        -3.379092        -1.363926
