19
Iteration:  4065charge 0 multiplicity 1
 C         1.578438         0.558915        -0.150806
 C         0.163416         0.148787        -0.217478
 C        -0.804585         0.488191        -1.071761
 C        -1.990687        -0.388959        -0.724345
 C        -1.849868        -0.307617         0.902860
 C        -0.497365        -0.940852         0.573792
 O         0.040629        -1.570457         1.727154
 C        -1.149295        -1.903007        -0.592775
 O        -2.078275        -2.908730        -0.273043
 H         2.029343         0.328634         0.845235
 H         2.252146         0.149790        -0.921986
 H         1.690651         1.670414        -0.322885
 H        -0.661576         0.932144        -2.071820
 H        -3.012566        -0.172422        -1.016332
 H        -1.855561         0.716692         1.159081
 H        -2.644694        -0.808646         1.476879
 H         0.866015        -2.080401         1.507518
 H        -0.408107        -2.221505        -1.414473
 H        -2.030582        -3.571190        -0.981977
