19
Iteration:  1087
 C         1.535737         0.604922         0.003591
 C         0.091840         0.267282        -0.088187
 C        -0.985327         0.796230        -0.536685
 C        -2.123468        -0.302805        -0.177783
 C        -1.719607        -0.772287         1.282017
 C        -0.438302        -1.116730         0.500430
 O         0.557798        -2.017520         1.051232
 C        -1.370245        -1.518715        -0.839743
 O        -2.173728        -2.721348        -0.897766
 H         1.972229        -0.387859        -0.069370
 H         1.689376         1.183366        -0.985825
 H         1.723889         1.233097         0.859819
 H        -1.285637         1.738920        -1.026924
 H        -3.142903        -0.275157        -0.556119
 H        -1.665903         0.122617         1.947288
 H        -2.398076        -1.550216         1.745337
 H         0.568857        -1.756036         2.028800
 H        -0.761691        -1.484985        -1.760542
 H        -1.694582        -3.362120        -0.247926
