19
Iteration:  1586
 C         1.561782         0.528550        -0.190633
 C         0.082888         0.246171        -0.003889
 C        -0.977759         0.805557        -0.586737
 C        -2.163191        -0.303800        -0.310304
 C        -1.889879        -0.705807         1.148647
 C        -0.456963        -1.056415         0.589899
 O         0.397852        -2.085817         1.106634
 C        -1.310442        -1.479790        -0.722316
 O        -1.939305        -2.685965        -0.679860
 H         2.034811        -0.300306        -0.708689
 H         1.795250         1.486343        -0.718650
 H         1.992087         0.621819         0.844272
 H        -1.078153         1.660920        -1.249941
 H        -3.163091        -0.022980        -0.665282
 H        -1.968321         0.003888         1.971682
 H        -2.386445        -1.664485         1.329432
 H         0.195212        -2.024299         2.017918
 H        -0.606654        -1.364772        -1.556063
 H        -1.273095        -3.324453        -1.059153
