19
Iteration:   792charge 0 multiplicity 1
 C         1.472849         0.700521         0.108749
 C         0.116204         0.138827        -0.098234
 C        -1.102648         0.768645        -0.445103
 C        -2.105872        -0.304012        -0.091199
 C        -1.592956        -0.858536         1.250868
 C        -0.347472        -1.200250         0.387323
 O         0.667452        -2.002877         0.811701
 C        -1.413769        -1.486103        -0.819880
 O        -2.280510        -2.579621        -0.731828
 H         2.207093        -0.125911         0.249093
 H         1.599813         1.512064        -0.565384
 H         1.331395         1.263946         1.026872
 H        -1.184154         1.749334        -0.953957
 H        -3.205289        -0.141194        -0.232569
 H        -1.230991        -0.160123         2.088985
 H        -2.008756        -1.753212         1.725565
 H         0.365187        -2.795681         1.304161
 H        -0.906897        -1.214594        -1.757456
 H        -2.432922        -2.986139        -1.556714
