19
Iteration:   507charge 0 multiplicity 1
 C         1.559162         0.660897         0.076823
 C         0.121179         0.174574         0.014436
 C        -1.146271         0.893109        -0.280541
 C        -2.195835        -0.211487        -0.114385
 C        -1.812177        -0.852391         1.298615
 C        -0.417668        -1.178644         0.402653
 O         0.548591        -2.150626         0.584696
 C        -1.390924        -1.395540        -0.823683
 O        -1.865156        -2.695661        -0.695670
 H         2.000564         1.050773        -0.921960
 H         1.668566         1.466796         0.807193
 H         1.942375        -0.246999         0.555642
 H        -1.165403         1.904443        -0.706300
 H        -3.190720         0.109120        -0.412183
 H        -1.563975        -0.203931         2.087074
 H        -2.390116        -1.736977         1.502036
 H         0.122944        -2.942760         0.864264
 H        -1.147527        -1.060330        -1.881391
 H        -2.768053        -2.753701        -0.889512
