19
Iteration:  3223charge 0 multiplicity 1
 C         1.494503         0.710826         0.005536
 C         0.097668         0.177166        -0.041766
 C        -0.994690         0.861791        -0.389898
 C        -2.141754        -0.292413        -0.344545
 C        -1.743973        -0.733754         1.144447
 C        -0.394966        -1.176066         0.435938
 O         0.576536        -2.014846         1.050163
 C        -1.368117        -1.546071        -0.834578
 O        -2.137616        -2.739981        -0.661311
 H         1.789737         0.829830         1.046749
 H         2.247047         0.087574        -0.515928
 H         1.515352         1.719250        -0.494646
 H        -1.108004         1.854275        -0.934804
 H        -3.121505         0.043243        -0.633542
 H        -1.670213         0.063984         1.829108
 H        -2.403073        -1.606359         1.453406
 H         0.179775        -2.803423         1.534456
 H        -1.008688        -1.565234        -1.820803
 H        -1.785522        -3.427495        -1.257890
