19
Iteration:  3798charge 0 multiplicity 1
 C         1.547750         0.675141        -0.095795
 C         0.199817         0.120033        -0.199180
 C        -0.831541         0.665893        -0.990965
 C        -2.010058        -0.290566        -0.655309
 C        -1.848052        -0.383940         0.983055
 C        -0.537267        -1.025494         0.585923
 O         0.158451        -1.844672         1.566890
 C        -1.293735        -1.725933        -0.631128
 O        -1.977947        -2.979715        -0.428957
 H         1.578362         1.662233         0.448293
 H         2.338688         0.085647         0.465218
 H         1.842304         0.911768        -1.152994
 H        -0.912941         1.595452        -1.574971
 H        -3.016478        -0.118556        -1.148462
 H        -1.729476         0.493332         1.564515
 H        -2.543300        -1.155814         1.427536
 H         0.521631        -2.460864         0.981933
 H        -0.593950        -1.946863        -1.547602
 H        -2.063570        -3.167583         0.512461
