19
Iteration:  1216charge 0 multiplicity 1
 C         1.570148         0.689106         0.068505
 C         0.082051         0.207778        -0.141491
 C        -0.975425         0.798832        -0.667269
 C        -2.086387        -0.234667        -0.237284
 C        -1.737154        -0.618941         1.224515
 C        -0.469358        -1.133587         0.472305
 O         0.445133        -2.018749         1.043780
 C        -1.444795        -1.550147        -0.714289
 O        -1.991231        -2.901946        -0.723188
 H         2.109744         0.781842        -0.827326
 H         1.311592         1.662395         0.702129
 H         2.046424        -0.111603         0.587591
 H        -1.166761         1.662814        -1.242180
 H        -3.087928         0.178987        -0.397841
 H        -1.596155         0.171638         1.983747
 H        -2.206960        -1.448841         1.719933
 H         0.802447        -2.676482         0.398396
 H        -0.878941        -1.360690        -1.655651
 H        -2.822099        -2.901119        -0.334982
