19
Iteration:    44charge 0 multiplicity 1
 C         1.465038         0.778142         0.257020
 C         0.041449         0.218700         0.197468
 C        -1.048517         0.924296        -0.058946
 C        -2.155833        -0.142904        -0.020197
 C        -1.636301        -0.997303         1.216411
 C        -0.372309        -1.210783         0.214857
 O         0.576199        -2.323818         0.285684
 C        -1.439356        -1.299592        -0.926179
 O        -2.082975        -2.626588        -0.660321
 H         2.043561         0.012423         0.619013
 H         1.734788         1.130751        -0.732690
 H         1.399287         1.627195         0.935225
 H        -1.063391         1.905112        -0.445267
 H        -3.215124         0.059920        -0.142644
 H        -1.290346        -0.611574         2.177716
 H        -2.294824        -1.860605         1.255684
 H         0.537399        -2.702669         1.193300
 H        -1.231518        -1.197733        -1.989287
 H        -1.720857        -3.269028        -1.333442
