19
Iteration:  4319charge 0 multiplicity 1
 C         1.645233         0.504409        -0.072906
 C         0.188455         0.126602        -0.287022
 C        -0.839038         0.477945        -1.124264
 C        -1.980040        -0.512800        -0.822056
 C        -1.955377        -0.333404         0.704793
 C        -0.536223        -0.951134         0.554222
 O         0.006896        -1.515403         1.747772
 C        -1.156898        -1.842740        -0.587664
 O        -1.977054        -2.848103        -0.140371
 H         2.016934         0.395579         0.954144
 H         2.261122        -0.229836        -0.579815
 H         1.775733         1.487200        -0.460658
 H        -0.759172         1.138639        -2.032119
 H        -2.935849        -0.574440        -1.324002
 H        -1.950245         0.720320         1.128474
 H        -2.682038        -0.896663         1.222223
 H         0.934183        -1.593663         1.738159
 H        -0.562698        -2.162283        -1.404558
 H        -1.943906        -2.954268         0.807054
