19
Iteration:  4897charge 0 multiplicity 1
 C         1.643531         0.354694        -0.160558
 C         0.185152         0.025623        -0.290004
 C        -0.638728         0.167464        -1.424738
 C        -1.823113        -0.730504        -1.046808
 C        -2.107587        -0.140519         0.426044
 C        -0.615056        -0.771832         0.722671
 O        -0.025224        -1.071112         1.927551
 C        -1.085754        -1.892686        -0.307584
 O        -1.962030        -2.933589         0.123072
 H         1.868765         1.018915        -0.981270
 H         1.936817         0.797326         0.797303
 H         2.275764        -0.519720        -0.225603
 H        -0.457949         0.751046        -2.295874
 H        -2.616533        -0.995787        -1.811213
 H        -2.132834         1.034045         0.494888
 H        -2.958279        -0.528905         1.075025
 H        -0.702611        -1.281570         2.533970
 H        -0.328963        -2.399626        -0.859233
 H        -2.750597        -2.799249        -0.399005
