19
Iteration:     3
 C         1.487738         0.706752         0.125090
 C         0.058792         0.247032         0.147527
 C        -1.103480         0.880701        -0.024063
 C        -2.162719        -0.242231         0.038491
 C        -1.627136        -1.050854         1.275333
 C        -0.377011        -1.209711         0.316787
 O         0.542361        -2.241432         0.397555
 C        -1.430360        -1.306486        -0.862813
 O        -2.119063        -2.538287        -0.929427
 H         2.079392         0.503502         1.099249
 H         2.120361         0.190236        -0.597279
 H         1.610444         1.747027        -0.006343
 H        -1.289475         1.908490        -0.122993
 H        -3.219945        -0.014803        -0.099740
 H        -1.406208        -0.580641         2.232984
 H        -2.148528        -1.961492         1.410995
 H         0.835452        -2.332015         1.286804
 H        -0.999828        -0.938007        -1.803206
 H        -1.473292        -3.214220        -0.986623
