19
Iteration:  2733charge 0 multiplicity 1
 C         1.475026         0.736776         0.224228
 C         0.080565         0.229562         0.096554
 C        -1.092908         0.919292        -0.207818
 C        -2.091106        -0.229104        -0.184997
 C        -1.681427        -1.013944         1.240342
 C        -0.368737        -1.202092         0.373943
 O         0.696139        -2.132744         0.703534
 C        -1.428924        -1.445588        -0.840253
 O        -2.293183        -2.625692        -0.910446
 H         1.905226         0.529279         1.178244
 H         2.116983         0.119594        -0.457692
 H         1.800139         1.732569        -0.158208
 H        -1.204306         1.942103        -0.308897
 H        -3.134895         0.103379        -0.350410
 H        -1.626121        -0.314575         2.124635
 H        -2.424507        -1.845218         1.495040
 H         1.252366        -2.236096        -0.087284
 H        -1.110444        -1.302568        -1.878646
 H        -1.699222        -3.397198        -0.555285
