19
Iteration:  1318
 C         1.481311         0.659063         0.016372
 C         0.071306         0.178562        -0.073023
 C        -1.012229         0.735735        -0.631360
 C        -2.083027        -0.173119        -0.333661
 C        -1.690354        -0.606556         1.144460
 C        -0.459936        -1.105777         0.481918
 O         0.432090        -2.037620         1.070836
 C        -1.393675        -1.554870        -0.793257
 O        -1.921462        -2.847852        -0.587050
 H         1.695118         1.690105        -0.391796
 H         1.773208         0.687420         1.134082
 H         2.136951        -0.126473        -0.457829
 H        -1.302353         1.737057        -0.996505
 H        -3.123884         0.034394        -0.590373
 H        -1.727855         0.244850         1.805398
 H        -2.405758        -1.330504         1.683133
 H         0.037134        -2.708694         1.638515
 H        -0.774312        -1.439279        -1.715315
 H        -2.391276        -3.087139        -1.459644
