19
Iteration:  4861
 C         1.703859         0.287238        -0.092944
 C         0.211646         0.076132        -0.322089
 C        -0.587700         0.185259        -1.495411
 C        -1.914497        -0.600704        -1.054098
 C        -2.059870        -0.222159         0.547798
 C        -0.658619        -0.805208         0.589472
 O        -0.176450        -1.030671         1.944185
 C        -1.184716        -1.890002        -0.429065
 O        -1.885471        -2.905087         0.269585
 H         2.327107         0.240787        -0.973231
 H         1.781747         1.370875         0.198215
 H         2.146846        -0.425063         0.607299
 H        -0.233378         0.685571        -2.449443
 H        -2.662404        -0.672875        -1.854575
 H        -2.266261         0.843760         0.956506
 H        -2.698252        -0.938235         0.956422
 H         0.247192        -1.853269         2.033164
 H        -0.439882        -2.165907        -1.190432
 H        -2.307863        -3.321782        -0.455002
