19
Iteration:  3460charge 0 multiplicity 1
 C         1.549769         0.586863         0.053919
 C         0.052179         0.256391        -0.123446
 C        -1.011503         0.800601        -0.806002
 C        -2.051632        -0.269405        -0.396415
 C        -1.859495        -0.611836         1.067459
 C        -0.480072        -1.054492         0.588111
 O         0.408878        -2.021067         1.121851
 C        -1.193462        -1.623792        -0.698518
 O        -2.043120        -2.818185        -0.535607
 H         1.864799         0.071625         0.971634
 H         2.104248         0.387729        -0.827850
 H         1.598650         1.635180         0.372964
 H        -1.243862         1.708546        -1.347968
 H        -3.037145        -0.278975        -0.776838
 H        -1.891216         0.220479         1.758523
 H        -2.401446        -1.537954         1.461935
 H         0.797801        -1.663310         1.883967
 H        -0.703950        -1.672054        -1.648429
 H        -1.972238        -3.322793        -1.319158
