19
Iteration:  3266
 C         1.627313         0.738566         0.093331
 C         0.115653         0.200700        -0.125398
 C        -1.083252         0.714137        -0.570553
 C        -2.124836        -0.298022        -0.244775
 C        -1.770600        -0.663698         1.208620
 C        -0.421182        -1.073577         0.507081
 O         0.534545        -2.094017         0.975011
 C        -1.431966        -1.481678        -0.796296
 O        -2.089517        -2.743498        -0.693724
 H         2.159804        -0.075102         0.602710
 H         2.111817         0.995010        -0.895390
 H         1.437002         1.707968         0.669529
 H        -1.151435         1.545657        -1.404934
 H        -3.154832        -0.374366        -0.531267
 H        -1.767446         0.156113         1.850299
 H        -2.372865        -1.507668         1.691662
 H         0.038806        -2.829960         1.274268
 H        -0.842132        -1.312964        -1.725281
 H        -1.473447        -3.404553        -0.772474
