19
Iteration:   269
 C         1.503939         0.773335         0.126989
 C         0.121623         0.248538         0.096127
 C        -1.068768         0.885858        -0.138598
 C        -2.075200        -0.274720        -0.071625
 C        -1.618734        -1.076091         1.192515
 C        -0.357952        -1.212412         0.373964
 O         0.760297        -2.084575         0.585758
 C        -1.481055        -1.454436        -0.883411
 O        -2.351315        -2.578250        -0.764148
 H         1.532986         1.798271         0.493487
 H         2.171219         0.309562         0.818114
 H         2.062980         0.771206        -0.811543
 H        -1.293879         1.799594        -0.669208
 H        -3.147143        -0.076041        -0.181931
 H        -1.673651        -0.488856         2.112306
 H        -2.196677        -2.028755         1.203715
 H         0.387226        -2.712644         1.222274
 H        -1.257907        -1.268419        -1.935276
 H        -2.370913        -3.041117        -1.631231
