19
Iteration:   148charge 0 multiplicity 1
 C         1.493478         0.677397        -0.156572
 C         0.045129         0.309044         0.259002
 C        -1.089655         0.899176        -0.036862
 C        -2.126532        -0.227069         0.006894
 C        -1.761102        -1.098827         1.261201
 C        -0.370527        -1.227440         0.442393
 O         0.603199        -2.149156         0.646949
 C        -1.333205        -1.304063        -0.832766
 O        -2.071748        -2.599444        -0.912834
 H         1.580701         0.803281        -1.320783
 H         2.008979         1.612072         0.155424
 H         2.261949        -0.085743         0.078003
 H        -1.245688         1.963493        -0.244562
 H        -3.137556         0.001983        -0.388748
 H        -1.863253        -0.715447         2.273293
 H        -2.167733        -2.130012         1.144811
 H         0.271821        -3.017172         1.052586
 H        -0.976710        -1.003407        -1.836360
 H        -2.481032        -2.650855        -1.851297
