19
Iteration:   291charge 0 multiplicity 1
 C         1.474334         0.814665         0.232518
 C         0.077067         0.247524         0.055344
 C        -1.061043         0.770238        -0.333552
 C        -2.150870        -0.252334         0.019270
 C        -1.477801        -1.019035         1.272477
 C        -0.304962        -1.210055         0.291897
 O         0.683185        -2.183773         0.608738
 C        -1.551053        -1.418646        -0.869312
 O        -2.355182        -2.577713        -0.867019
 H         1.588724         1.695937         0.864946
 H         2.209306         0.142562         0.696023
 H         1.965836         1.003603        -0.758097
 H        -1.190213         1.884096        -0.440061
 H        -3.186710         0.092296        -0.044506
 H        -1.204112        -0.310469         2.090298
 H        -2.022088        -1.960636         1.534602
 H         0.769162        -2.056040         1.619453
 H        -1.274061        -1.115825        -1.894273
 H        -1.939564        -3.250524        -1.453988
