19
Iteration:  2706charge 0 multiplicity 1
 C         1.417480         0.742134         0.277587
 C         0.032723         0.173483        -0.033264
 C        -1.136296         0.775567        -0.253148
 C        -2.102430        -0.339564        -0.002930
 C        -1.475693        -0.926490         1.237948
 C        -0.325501        -1.195343         0.292572
 O         0.525055        -2.201224         0.712268
 C        -1.401884        -1.414934        -0.860843
 O        -2.231668        -2.465845        -0.924583
 H         1.447646         1.204522         1.326669
 H         2.275779         0.024069         0.259870
 H         1.735334         1.448504        -0.501895
 H        -1.336620         1.807151        -0.725959
 H        -3.167804        -0.140513        -0.016673
 H        -1.238001        -0.273665         2.053430
 H        -2.161535        -1.659688         1.574965
 H         1.442715        -1.913436         0.661174
 H        -1.074059        -1.142565        -1.929587
 H        -1.690184        -3.327901        -1.089517
