19
Iteration:   941
 C         1.532668         0.617628        -0.061165
 C         0.042894         0.261080         0.127295
 C        -1.040701         0.785717        -0.494529
 C        -2.090974        -0.356383        -0.243556
 C        -1.721926        -0.902498         1.177111
 C        -0.409720        -1.102049         0.528728
 O         0.695351        -1.913330         1.023477
 C        -1.282935        -1.593048        -0.823525
 O        -2.314494        -2.562108        -0.825371
 H         1.624144         1.659898         0.193225
 H         2.184079        -0.043358         0.637968
 H         1.612579         0.422174        -1.118261
 H        -1.264596         1.791411        -0.779867
 H        -3.099801        -0.134044        -0.640856
 H        -1.814474        -0.264510         2.043757
 H        -2.264193        -1.838075         1.323425
 H         0.236612        -2.573267         1.500879
 H        -0.688924        -1.416133        -1.743395
 H        -1.929726        -3.375351        -0.985951
