19
Iteration:   487
 C         1.473955         0.640080         0.015181
 C         0.115250         0.256959         0.123053
 C        -1.133189         0.912539        -0.260272
 C        -2.108799        -0.257275        -0.103905
 C        -1.723029        -0.952310         1.174396
 C        -0.420379        -1.181238         0.392712
 O         0.673309        -2.106016         0.754497
 C        -1.340732        -1.410590        -0.828569
 O        -2.115730        -2.659308        -0.747162
 H         1.852213         0.687828        -1.071804
 H         1.798119         1.659264         0.207479
 H         2.158330         0.019802         0.643175
 H        -1.317940         1.955699        -0.522524
 H        -3.120038        -0.002772        -0.418121
 H        -1.787355        -0.372040         2.097480
 H        -2.169017        -1.915883         1.270389
 H         0.227679        -2.944409         0.789834
 H        -0.952432        -1.262670        -1.855657
 H        -2.918235        -2.542228        -1.282646
