19
Iteration:  4410
 C         1.633523         0.407790        -0.095531
 C         0.187082         0.093853        -0.352343
 C        -0.745487         0.441309        -1.239318
 C        -1.998431        -0.419600        -0.834350
 C        -2.002787        -0.371044         0.768528
 C        -0.569878        -0.810706         0.626361
 O         0.008634        -1.365317         1.795477
 C        -1.171310        -1.849097        -0.584078
 O        -1.905748        -3.011719        -0.052790
 H         2.357071         0.387845        -0.961314
 H         1.810155         1.484721         0.103028
 H         1.997214        -0.095045         0.808119
 H        -0.654524         0.707309        -2.244084
 H        -2.847457        -0.157772        -1.506067
 H        -2.084741         0.570752         1.354145
 H        -2.718215        -1.096440         1.221689
 H         0.802521        -1.847579         1.435548
 H        -0.370401        -1.914039        -1.373113
 H        -2.899011        -2.775941        -0.032840
