19
Iteration:  1417
 C         1.533130         0.609147        -0.090180
 C         0.080411         0.218612        -0.061028
 C        -1.055209         0.771084        -0.581121
 C        -2.089681        -0.278248        -0.394823
 C        -1.794475        -0.698253         1.109426
 C        -0.402836        -1.076356         0.501937
 O         0.316952        -1.976187         1.262692
 C        -1.278756        -1.566221        -0.773505
 O        -2.040181        -2.725676        -0.638859
 H         1.790397         1.728505         0.080359
 H         2.104989         0.016559         0.622896
 H         1.985630         0.178299        -1.019667
 H        -1.104106         1.656101        -1.155048
 H        -3.008195         0.054108        -0.854489
 H        -1.781547         0.050333         1.915926
 H        -2.183290        -1.735786         1.481542
 H         1.119898        -2.361093         0.956221
 H        -0.790273        -1.402146        -1.821684
 H        -1.448045        -3.571221        -0.578962
