19
Iteration:  2631charge 0 multiplicity 1
 C         1.456770         0.617124         0.004962
 C         0.052614         0.298143         0.197317
 C        -1.141810         0.890614        -0.108743
 C        -2.159454        -0.218014        -0.047854
 C        -1.712060        -1.075977         1.152936
 C        -0.459614        -1.240697         0.351156
 O         0.594890        -2.221478         0.554069
 C        -1.318390        -1.230700        -0.850256
 O        -1.971512        -2.552797        -0.731550
 H         1.761670         1.694623        -0.210890
 H         2.025674         0.231901         0.883126
 H         1.811255         0.073677        -0.932720
 H        -1.391746         1.999567        -0.131332
 H        -3.174193        -0.102504        -0.397909
 H        -1.715415        -0.441112         2.119911
 H        -2.260735        -2.010504         1.277806
 H         0.440156        -2.512472         1.475031
 H        -0.937004        -1.060504        -1.900375
 H        -2.104725        -2.833229        -1.618745
