19
Iteration:  2434charge 0 multiplicity 1
 C         1.463902         0.710506         0.131934
 C         0.064656         0.241027         0.037578
 C        -1.045311         0.892946        -0.136508
 C        -2.150853        -0.181361        -0.075513
 C        -1.615599        -0.917855         1.246176
 C        -0.362536        -1.202781         0.297653
 O         0.669909        -2.183749         0.632276
 C        -1.443992        -1.430386        -0.850363
 O        -2.173530        -2.693770        -0.828871
 H         1.441786         1.847654        -0.028442
 H         1.909606         0.611166         1.101215
 H         2.097994         0.108519        -0.523790
 H        -1.165248         2.010483        -0.161206
 H        -3.249998        -0.043738        -0.303535
 H        -1.198421        -0.383606         2.170096
 H        -2.323227        -1.837814         1.278755
 H         0.551027        -2.360822         1.637218
 H        -1.318336        -1.311819        -1.913803
 H        -2.564738        -2.814990        -1.810556
