19
Iteration:  4330
 C         1.702832         0.501593        -0.146409
 C         0.192790         0.148651        -0.243402
 C        -0.753780         0.373793        -1.197382
 C        -1.996791        -0.460166        -0.849584
 C        -2.039234        -0.365553         0.836533
 C        -0.523160        -0.912087         0.581068
 O        -0.039237        -1.469833         1.781711
 C        -1.200765        -1.815336        -0.632722
 O        -1.961682        -2.919360        -0.149616
 H         1.932480         0.266471         0.896285
 H         2.305615         0.088498        -0.931254
 H         1.971421         1.533966        -0.160883
 H        -0.817221         1.288116        -1.858904
 H        -2.751627        -0.302280        -1.610272
 H        -2.175540         0.693631         1.273326
 H        -2.558595        -1.099852         1.366673
 H         0.887968        -1.805511         1.466355
 H        -0.597531        -2.131145        -1.423815
 H        -1.742658        -2.817603         0.841998
