19
Iteration:  2982charge 0 multiplicity 1
 C         1.527701         0.766282         0.034530
 C         0.132275         0.180938         0.055732
 C        -1.019008         0.851428        -0.253330
 C        -2.117548        -0.240063        -0.278632
 C        -1.794380        -0.929879         1.206582
 C        -0.498996        -1.144531         0.365214
 O         0.425120        -2.185644         0.780125
 C        -1.382957        -1.424406        -0.837094
 O        -2.017973        -2.669450        -0.686499
 H         2.169771         0.543002         0.840201
 H         2.100274         0.438707        -0.781412
 H         1.588209         1.842616         0.074587
 H        -0.984702         1.838030        -0.889295
 H        -3.177095         0.018202        -0.601037
 H        -1.645870        -0.268587         2.120950
 H        -2.279642        -1.842403         1.520633
 H         0.836407        -1.831251         1.608791
 H        -0.868548        -1.377507        -1.863906
 H        -1.389076        -3.268160        -0.924917
