19
Iteration:  3701
 C         1.515689         0.590621         0.036315
 C         0.111504         0.161106        -0.236605
 C        -0.893245         0.611306        -0.953971
 C        -2.087665        -0.307212        -0.476491
 C        -1.846821        -0.471453         1.039579
 C        -0.465908        -1.023705         0.489256
 O         0.304081        -1.800015         1.322686
 C        -1.230757        -1.713685        -0.695418
 O        -1.924077        -2.863122        -0.366548
 H         2.098670        -0.176980        -0.480420
 H         1.819717         1.589189        -0.206742
 H         1.614153         0.254610         1.119317
 H        -0.952093         1.569623        -1.490560
 H        -3.092028        -0.128977        -1.002544
 H        -1.791741         0.427264         1.650596
 H        -2.432939        -1.356960         1.411851
 H        -0.157650        -1.852970         2.101053
 H        -0.719261        -1.779018        -1.669427
 H        -2.653335        -2.964527        -1.026931
