19
Iteration:  4379
 C         1.570785         0.430615        -0.148782
 C         0.151627         0.104083        -0.263740
 C        -0.766183         0.390796        -1.264008
 C        -1.945683        -0.523909        -0.796772
 C        -1.960501        -0.114678         0.758652
 C        -0.617480        -0.896610         0.664046
 O        -0.025720        -1.481245         1.831321
 C        -1.192296        -1.781309        -0.529535
 O        -1.794644        -3.015634        -0.212564
 H         2.143889        -0.497552        -0.387262
 H         1.757469         1.217305        -0.940058
 H         1.987875         0.765294         0.850268
 H        -0.859996         1.285284        -1.844153
 H        -2.917760        -0.530265        -1.342092
 H        -1.752600         0.888626         0.972909
 H        -2.893521        -0.462539         1.331794
 H         0.583053        -2.098448         1.416364
 H        -0.419196        -2.061054        -1.349004
 H        -2.353318        -2.728552         0.507362
