19
Iteration:  1759charge 0 multiplicity 1
 C         1.503467         0.646683         0.217522
 C         0.100717         0.220009        -0.083639
 C        -1.023489         0.843585        -0.594308
 C        -2.105740        -0.203967        -0.266801
 C        -1.753248        -0.575225         1.199750
 C        -0.446584        -1.132988         0.467603
 O         0.561216        -2.106632         0.777566
 C        -1.317379        -1.566161        -0.801465
 O        -2.176621        -2.840996        -0.647060
 H         1.394927         1.786568         0.344096
 H         1.783601         0.106633         1.072467
 H         2.241762         0.456061        -0.586037
 H        -1.130167         1.831729        -1.029618
 H        -3.147431        -0.119786        -0.532949
 H        -1.553591         0.344329         1.790288
 H        -2.372920        -1.358710         1.743120
 H         0.516706        -2.678288         1.614067
 H        -0.897141        -1.382216        -1.806324
 H        -1.446663        -3.476449        -0.250805
