19
Iteration:   539charge 0 multiplicity 1
 C         1.470268         0.663656         0.226237
 C        -0.000240         0.270657        -0.028434
 C        -1.094978         0.887872        -0.365053
 C        -2.204082        -0.118116        -0.057615
 C        -1.551203        -0.681123         1.234716
 C        -0.432741        -1.149264         0.335641
 O         0.417562        -2.239774         0.623423
 C        -1.472910        -1.453678        -0.796794
 O        -1.791617        -2.841646        -0.686876
 H         2.014086         1.464398        -0.320778
 H         1.782550         0.914477         1.245710
 H         2.166162        -0.134489        -0.001024
 H        -1.206188         1.877470        -0.732085
 H        -3.230765         0.204139        -0.125145
 H        -1.233019        -0.104740         2.062321
 H        -2.084708        -1.529085         1.683321
 H         0.029431        -2.939095         0.024646
 H        -1.361453        -1.211195        -1.883822
 H        -2.414911        -3.149274        -1.402063
