19
Iteration:  3534
 C         1.573878         0.706185         0.049555
 C         0.104661         0.245107        -0.063103
 C        -0.981579         0.702325        -0.765158
 C        -2.049849        -0.368398        -0.491236
 C        -1.840540        -0.563510         1.030346
 C        -0.465852        -1.096362         0.525212
 O         0.309833        -2.049335         1.204623
 C        -1.227559        -1.587004        -0.797168
 O        -1.989869        -2.818720        -0.422073
 H         1.910576         0.884704        -0.983438
 H         1.426852         1.659253         0.582482
 H         2.127084        -0.085922         0.503541
 H        -1.037422         1.468883        -1.501471
 H        -3.024791        -0.135225        -0.827923
 H        -1.773141         0.365256         1.611288
 H        -2.620760        -1.269098         1.280402
 H         0.816089        -1.564573         1.893824
 H        -0.590519        -1.804189        -1.660948
 H        -2.670895        -2.965401        -1.141575
