19
Iteration:    25
 C         1.597978         0.791324         0.193449
 C         0.090308         0.363872         0.167338
 C        -1.088104         0.910510         0.086529
 C        -2.116373        -0.247195        -0.100150
 C        -1.704612        -1.061500         1.177864
 C        -0.388514        -1.191239         0.255787
 O         0.476010        -2.276819         0.269738
 C        -1.415147        -1.369059        -0.863454
 O        -2.094109        -2.611411        -0.688700
 H         2.330270         0.127508         0.867956
 H         2.012726         0.653795        -0.814074
 H         1.730115         1.777321         0.501397
 H        -1.473756         1.892200         0.158422
 H        -3.156124         0.005998        -0.316324
 H        -1.775732        -0.334856         1.970305
 H        -2.145675        -1.968467         1.423280
 H         0.521557        -2.638207         1.227344
 H        -1.201575        -1.221429        -1.917613
 H        -1.621977        -3.307120        -1.299545
