19
Iteration:  2540
 C         1.492019         0.809613        -0.010922
 C         0.077718         0.284094         0.144997
 C        -1.072257         0.832742        -0.189506
 C        -2.121462        -0.268395         0.029662
 C        -1.622117        -1.059006         1.274488
 C        -0.379940        -1.207854         0.403987
 O         0.468415        -2.254972         0.810702
 C        -1.378455        -1.312851        -0.893830
 O        -2.102785        -2.587126        -0.929021
 H         1.676551         1.342264        -1.005636
 H         1.981156         1.512169         0.728272
 H         2.241262         0.012575        -0.083925
 H        -1.391370         1.873776        -0.384530
 H        -3.193794        -0.055986        -0.218516
 H        -1.653074        -0.606464         2.229758
 H        -2.107064        -2.061299         1.317151
 H         1.108056        -2.575365         0.047214
 H        -0.845417        -0.980565        -1.867710
 H        -2.576163        -2.796092        -1.844605
