19
Iteration:  4650charge 0 multiplicity 1
 C         1.633232         0.488321        -0.130346
 C         0.260694         0.010697        -0.257862
 C        -0.624577         0.265560        -1.303026
 C        -1.857640        -0.591986        -0.926865
 C        -2.111844        -0.226376         0.566649
 C        -0.585860        -0.843427         0.640366
 O         0.002112        -1.182016         1.903853
 C        -1.164802        -1.918752        -0.456494
 O        -2.114898        -2.873074         0.013349
 H         1.814287         1.154148        -0.989364
 H         1.856929         0.950396         0.810818
 H         2.358707        -0.323338        -0.237905
 H        -0.436327         0.444048        -2.372878
 H        -2.776046        -0.672087        -1.576862
 H        -2.284958         0.816005         0.777213
 H        -2.901863        -0.992064         0.931588
 H         0.927402        -1.441934         1.875565
 H        -0.583744        -2.316344        -1.260008
 H        -1.738074        -3.789648        -0.054219
