19
Iteration:  1032
 C         1.497988         0.772863         0.117451
 C         0.119718         0.251627        -0.044015
 C        -1.034042         0.803838        -0.511328
 C        -2.110981        -0.237018        -0.314785
 C        -1.772057        -0.661209         1.170032
 C        -0.449620        -1.144710         0.442332
 O         0.342872        -2.315089         0.736292
 C        -1.324229        -1.494662        -0.745615
 O        -1.970681        -2.706079        -0.572899
 H         2.121921         0.171330         0.791473
 H         2.082410         0.538744        -0.882835
 H         1.501889         1.837969         0.388543
 H        -1.348139         1.790309        -0.834321
 H        -3.080950        -0.153314        -0.786783
 H        -1.650645         0.184529         1.922799
 H        -2.399034        -1.461015         1.625630
 H         0.958245        -2.152315         1.531260
 H        -0.764201        -1.524100        -1.704533
 H        -1.466490        -3.255498         0.078062
