19
Iteration:  2511charge 0 multiplicity 1
 C         1.472448         0.782552         0.103190
 C         0.094083         0.186810         0.064817
 C        -1.056416         0.925682         0.012176
 C        -2.123876        -0.115036        -0.017368
 C        -1.705435        -0.967641         1.180465
 C        -0.463437        -1.300411         0.226070
 O         0.469849        -2.239616         0.672654
 C        -1.405348        -1.368364        -0.926081
 O        -1.971897        -2.694076        -0.759699
 H         1.706793         1.329737        -0.859693
 H         1.800644         1.458691         0.851309
 H         2.328314         0.095664        -0.019325
 H        -1.178941         1.876037        -0.335679
 H        -3.130005         0.238107        -0.256602
 H        -1.597292        -0.403595         2.203241
 H        -2.268206        -1.960820         1.282707
 H         1.366828        -2.029764         0.286208
 H        -1.048204        -1.281284        -1.959480
 H        -2.653711        -2.981380        -1.394054
