19
Iteration:  1134
 C         1.566938         0.535139        -0.212030
 C         0.036715         0.215645         0.067232
 C        -1.034688         0.805040        -0.471161
 C        -2.073401        -0.248387        -0.251925
 C        -1.806830        -0.722760         1.256218
 C        -0.469194        -1.123380         0.561482
 O         0.483121        -1.960372         1.089382
 C        -1.376668        -1.459848        -0.848595
 O        -1.968675        -2.767221        -0.767111
 H         1.684872        -0.119101        -1.158933
 H         1.712453         1.536275        -0.470213
 H         2.118535         0.267726         0.740730
 H        -1.087997         1.715428        -1.012099
 H        -3.031001         0.170820        -0.598568
 H        -1.784624         0.025669         2.071357
 H        -2.400252        -1.700818         1.615449
 H         0.111088        -2.416459         1.804437
 H        -1.131535        -1.237242        -1.900365
 H        -1.494773        -3.478587        -1.331262
