19
Iteration:  4577
 C         1.571559         0.436681        -0.114134
 C         0.174506         0.041947        -0.321027
 C        -0.597424         0.265657        -1.334459
 C        -1.872104        -0.467150        -0.875716
 C        -2.062663        -0.206310         0.662386
 C        -0.645234        -0.900773         0.598855
 O        -0.002979        -1.345243         1.831385
 C        -1.189536        -1.840800        -0.483398
 O        -2.021421        -2.932476        -0.003706
 H         2.190866        -0.457819        -0.055764
 H         1.927474         1.103181        -0.970921
 H         1.828733         1.162199         0.743119
 H        -0.528736         1.076689        -2.024694
 H        -2.584918        -0.650076        -1.648564
 H        -2.061317         0.840828         0.994968
 H        -2.923729        -0.872542         1.014619
 H         0.804061        -0.975470         2.005896
 H        -0.416209        -2.255642        -1.240829
 H        -1.375959        -3.338711         0.506122
