19
Iteration:   463
 C         1.484719         0.666181        -0.057766
 C         0.106003         0.180407         0.124153
 C        -1.094184         0.831763        -0.138681
 C        -2.114847        -0.268596        -0.126307
 C        -1.596161        -0.998743         1.259735
 C        -0.423594        -1.249580         0.369565
 O         0.689363        -1.961085         0.938535
 C        -1.427825        -1.429508        -0.878958
 O        -2.247504        -2.590947        -0.923207
 H         1.982140         0.230546        -0.991169
 H         1.508793         1.689551        -0.408298
 H         2.176678         0.576140         0.769456
 H        -1.216964         1.823224        -0.605683
 H        -3.167614        -0.057623        -0.237841
 H        -1.401527        -0.312052         2.018140
 H        -2.210945        -1.847666         1.545702
 H         0.547107        -2.884362         0.803043
 H        -0.879942        -1.313611        -1.850593
 H        -2.575992        -2.715515        -1.778468
