19
Iteration:  4238
 C         1.489330         0.657730        -0.012920
 C         0.164223         0.168686        -0.332068
 C        -0.755233         0.429556        -1.252854
 C        -1.883496        -0.463354        -0.837048
 C        -1.868116        -0.283311         0.744587
 C        -0.562859        -1.064028         0.557382
 O         0.164723        -1.718383         1.686417
 C        -1.198873        -1.814629        -0.504507
 O        -2.105159        -2.808912        -0.074501
 H         1.633463         1.607298        -0.442992
 H         1.806691         0.678341         1.017838
 H         2.248978        -0.020221        -0.479092
 H        -0.892156         1.421772        -1.598657
 H        -2.867905        -0.639228        -1.302595
 H        -1.787654         0.720858         1.023401
 H        -2.659206        -0.909129         1.272088
 H         0.340453        -1.129211         2.356423
 H        -0.588139        -2.195889        -1.294466
 H        -1.777032        -3.531831        -0.544557
