19
Iteration:   418charge 0 multiplicity 1
 C         1.482288         0.606949        -0.120044
 C         0.028503         0.285284         0.118037
 C        -1.101097         0.800282        -0.246902
 C        -2.168286        -0.248653         0.079420
 C        -1.584198        -0.943762         1.364483
 C        -0.373131        -1.194556         0.472127
 O         0.549090        -2.103963         0.776858
 C        -1.405217        -1.362950        -0.789808
 O        -2.120049        -2.560570        -1.090951
 H         2.313797        -0.143296        -0.115059
 H         1.725038         1.056356        -1.106530
 H         1.900249         1.304593         0.591947
 H        -1.328106         1.646722        -0.953362
 H        -3.269677        -0.192762        -0.037060
 H        -1.368077        -0.392393         2.260960
 H        -2.044308        -1.926487         1.588553
 H         0.336162        -2.699696         1.452317
 H        -1.104962        -0.934325        -1.786585
 H        -1.536562        -3.254682        -1.281407
