19
Iteration:  4005
 C         1.552770         0.578437         0.083274
 C         0.121024         0.234038        -0.243127
 C        -0.798293         0.511322        -1.165790
 C        -1.914581        -0.495797        -0.791683
 C        -1.871422        -0.340230         0.860773
 C        -0.474370        -1.022444         0.533572
 O         0.181060        -1.654768         1.479587
 C        -1.270316        -1.800915        -0.547382
 O        -2.125146        -2.821425        -0.163844
 H         1.659811         1.493911         0.665007
 H         1.971576        -0.254272         0.676391
 H         2.016603         0.735733        -0.859893
 H        -0.960094         1.359044        -1.764374
 H        -2.980144        -0.482940        -1.144948
 H        -1.758524         0.725033         1.178662
 H        -2.641749        -0.943692         1.407640
 H         0.861619        -2.127613         1.109237
 H        -0.630950        -2.220847        -1.263058
 H        -1.544145        -3.495054         0.329985
