19
Iteration:  4275
 C         1.665226         0.646738         0.069213
 C         0.213350         0.061145        -0.257693
 C        -0.724818         0.283538        -1.253380
 C        -2.011979        -0.445196        -0.745859
 C        -2.014405        -0.268591         0.742933
 C        -0.564752        -0.962893         0.617710
 O         0.163609        -1.613922         1.565173
 C        -1.290828        -1.727018        -0.571203
 O        -2.075991        -2.917444        -0.128012
 H         1.567720         1.680649         0.528948
 H         2.211745         0.041097         0.835041
 H         2.227343         0.752017        -0.839866
 H        -0.685058         0.857247        -2.215983
 H        -2.914635        -0.326134        -1.353147
 H        -2.168653         0.796636         1.088002
 H        -2.750859        -0.910611         1.205928
 H         0.878697        -0.990640         1.637553
 H        -0.626475        -2.004405        -1.355634
 H        -1.378963        -3.316942         0.400780
