19
Iteration:   627
 C         1.536543         0.700459        -0.108123
 C         0.139134         0.202166         0.027962
 C        -1.134905         0.806669        -0.229446
 C        -2.085067        -0.318872        -0.098475
 C        -1.661772        -1.008630         1.236217
 C        -0.338010        -1.176054         0.414152
 O         0.560002        -2.070242         0.902974
 C        -1.347119        -1.458785        -0.801535
 O        -2.288322        -2.518233        -0.942306
 H         1.517835         1.605441         0.595304
 H         2.167333        -0.085643         0.279378
 H         1.686082         0.907512        -1.165645
 H        -1.160040         1.912384        -0.452412
 H        -3.131437        -0.088089        -0.277554
 H        -1.644032        -0.424913         2.164526
 H        -2.094524        -2.021510         1.468077
 H         0.739284        -1.730617         1.841817
 H        -1.000338        -1.197551        -1.843545
 H        -1.698776        -3.288991        -1.155477
