19
Iteration:  2116
 C         1.437971         0.615034        -0.131624
 C         0.057982         0.182291         0.042530
 C        -1.144975         0.747713        -0.403797
 C        -2.124691        -0.233618        -0.081541
 C        -1.714998        -0.792347         1.294921
 C        -0.412992        -1.198412         0.510157
 O         0.623801        -2.130202         0.983347
 C        -1.325339        -1.410808        -0.728372
 O        -2.007569        -2.599615        -0.955183
 H         1.681108         1.327348        -0.961003
 H         1.857517         1.162967         0.731896
 H         2.174281        -0.162033        -0.260003
 H        -1.270790         1.808050        -0.844847
 H        -3.181382        -0.049657        -0.159662
 H        -1.821699        -0.024238         2.076791
 H        -2.426421        -1.589968         1.641607
 H         0.273881        -2.968377         0.778162
 H        -0.741507        -1.019724        -1.593947
 H        -2.630826        -2.593892        -1.758990
