19
Iteration:   483charge 0 multiplicity 1
 C         1.487365         0.653929        -0.010376
 C         0.079784         0.247119         0.152377
 C        -1.105089         0.914848        -0.257448
 C        -2.088388        -0.264282        -0.113798
 C        -1.706359        -0.971243         1.207723
 C        -0.390551        -1.181403         0.399812
 O         0.660895        -2.066478         0.782680
 C        -1.334292        -1.441695        -0.863777
 O        -2.156084        -2.654363        -0.763377
 H         1.772826         0.542294        -1.091758
 H         1.699654         1.730897         0.169470
 H         2.047971         0.025013         0.674361
 H        -1.285576         1.992288        -0.458847
 H        -3.096956        -0.019622        -0.454546
 H        -1.631959        -0.379004         2.101437
 H        -2.160059        -1.985855         1.257622
 H         0.246912        -2.994420         0.762378
 H        -1.014334        -1.211582        -1.914282
 H        -2.915622        -2.517064        -1.401037
