19
Iteration:   876
 C         1.541404         0.548773        -0.128906
 C         0.083286         0.288904        -0.048177
 C        -1.190598         0.916521        -0.350717
 C        -2.176740        -0.203461        -0.127475
 C        -1.726638        -0.710785         1.306231
 C        -0.460923        -1.105023         0.479959
 O         0.352562        -2.197129         0.895715
 C        -1.314198        -1.419990        -0.774556
 O        -1.755986        -2.780966        -0.764301
 H         1.895252         1.048971        -0.992588
 H         1.949900         1.482487         0.527966
 H         2.088684        -0.342009         0.171226
 H        -1.245098         1.629949        -1.181034
 H        -3.242711         0.070605        -0.170870
 H        -1.384041        -0.003182         2.082170
 H        -2.154569        -1.663751         1.708889
 H        -0.275918        -2.963995         0.927383
 H        -0.887526        -1.172196        -1.752487
 H        -2.310911        -3.082454        -1.570859
