19
Iteration:   595charge 0 multiplicity 1
 C         1.523560         0.781959         0.032683
 C         0.037799         0.248833         0.166399
 C        -1.010150         0.870401        -0.288783
 C        -2.035153        -0.255116        -0.195592
 C        -1.751582        -0.938096         1.236963
 C        -0.388864        -1.306152         0.406767
 O         0.723555        -2.092346         0.774845
 C        -1.435222        -1.497191        -0.903043
 O        -2.270847        -2.618085        -0.735602
 H         1.447804         1.898944         0.294110
 H         2.218229         0.208562         0.624136
 H         1.874921         0.736292        -1.005942
 H        -1.112359         1.809708        -0.840753
 H        -3.079048         0.031495        -0.346872
 H        -1.519213        -0.218687         1.965412
 H        -2.437467        -1.725547         1.394660
 H         0.418815        -2.691690         1.424902
 H        -1.148252        -1.281052        -1.976161
 H        -2.148686        -3.123165        -1.500733
