19
Iteration:  1034charge 0 multiplicity 1
 C         1.509371         0.771629         0.100777
 C         0.140018         0.243379        -0.036415
 C        -1.035580         0.836578        -0.521199
 C        -2.103858        -0.234163        -0.323574
 C        -1.785732        -0.672708         1.177534
 C        -0.449477        -1.165652         0.432779
 O         0.344908        -2.303629         0.745237
 C        -1.322847        -1.512370        -0.741696
 O        -1.980461        -2.702367        -0.576171
 H         2.089949         0.088345         0.799969
 H         2.045955         0.619328        -0.846562
 H         1.429580         1.853915         0.383595
 H        -1.367589         1.848121        -0.772163
 H        -3.074647        -0.216735        -0.796187
 H        -1.666533         0.124941         1.944144
 H        -2.427529        -1.497243         1.660730
 H         0.955215        -2.117629         1.521846
 H        -0.773317        -1.476789        -1.704824
 H        -1.432483        -3.204046         0.156929
