19
Iteration:  4693charge 0 multiplicity 1
 C         1.541609         0.465434        -0.048998
 C         0.224487         0.005774        -0.419555
 C        -0.705466         0.291035        -1.412933
 C        -1.841786        -0.552599        -0.913156
 C        -1.958942        -0.163067         0.519488
 C        -0.578783        -0.857955         0.586001
 O        -0.151190        -1.328327         1.855484
 C        -1.138100        -1.887067        -0.466402
 O        -1.979673        -2.818903         0.220692
 H         1.537292         1.546603         0.263433
 H         1.802711        -0.245400         0.705650
 H         2.318145         0.484838        -0.837627
 H        -0.331993         0.580336        -2.401582
 H        -2.568301        -0.560003        -1.793301
 H        -2.048856         0.863806         0.698191
 H        -2.673053        -0.737487         1.231747
 H         0.459599        -1.970341         1.676759
 H        -0.412218        -2.426223        -1.101862
 H        -1.486363        -3.644740         0.370675
