19
Iteration:  4333charge 0 multiplicity 1
 C         1.692596         0.504017        -0.168765
 C         0.210942         0.152555        -0.233528
 C        -0.734537         0.360720        -1.220919
 C        -1.980262        -0.438969        -0.838021
 C        -2.045775        -0.370548         0.848681
 C        -0.559429        -0.901352         0.599248
 O        -0.040908        -1.456368         1.777961
 C        -1.222792        -1.787620        -0.648486
 O        -1.952892        -2.948191        -0.140527
 H         2.007375         0.150222         0.889678
 H         2.325999         0.134682        -1.009077
 H         1.978255         1.594687        -0.086789
 H        -0.787624         1.232609        -1.828958
 H        -2.713838        -0.260407        -1.613036
 H        -2.223502         0.660676         1.300872
 H        -2.574302        -1.176002         1.378610
 H         0.858956        -1.915994         1.500492
 H        -0.505809        -2.115672        -1.479145
 H        -1.772180        -2.917487         0.839968
