19
Iteration:  2934charge 0 multiplicity 1
 C         1.483974         0.631526         0.064564
 C         0.045191         0.235551         0.088814
 C        -1.101322         0.866539        -0.311137
 C        -2.162654        -0.277136        -0.126531
 C        -1.644275        -0.737709         1.297705
 C        -0.461630        -1.165289         0.448841
 O         0.343173        -2.242579         0.769898
 C        -1.361867        -1.390370        -0.830246
 O        -1.879856        -2.722497        -0.970994
 H         1.748065         1.517194         0.710322
 H         2.307172        -0.077842         0.270659
 H         1.705340         1.106069        -0.896106
 H        -1.142524         1.675074        -0.936474
 H        -3.162514        -0.146911        -0.460286
 H        -1.405524         0.153011         1.941193
 H        -2.203027        -1.482571         1.941913
 H         1.172791        -1.858764         1.030932
 H        -1.113426        -1.057341        -1.788130
 H        -1.856367        -3.220949        -0.070859
