19
Iteration:  1156charge 0 multiplicity 1
 C         1.575993         0.560142        -0.239936
 C         0.089794         0.199335         0.013453
 C        -1.029133         0.921373        -0.371283
 C        -2.157248        -0.165148        -0.244968
 C        -1.877614        -0.776153         1.051368
 C        -0.437938        -1.129250         0.432813
 O         0.414844        -1.984712         1.143013
 C        -1.268025        -1.482279        -0.729980
 O        -1.946932        -2.812164        -0.615510
 H         1.795630         0.333470        -1.362238
 H         1.760046         1.591255        -0.220289
 H         2.329413         0.133292         0.501707
 H        -1.025826         1.857766        -0.932887
 H        -3.202618         0.124081        -0.430246
 H        -1.889929        -0.184471         1.985033
 H        -2.258743        -1.829282         1.350309
 H        -0.014145        -2.926031         1.048397
 H        -0.782540        -1.508256        -1.712401
 H        -1.906901        -3.236604        -1.463474
