19
Iteration:   813
 C         1.531071         0.682155         0.051379
 C         0.128134         0.253665        -0.014169
 C        -1.100186         0.883589        -0.361669
 C        -2.116765        -0.233427        -0.207809
 C        -1.704373        -0.846772         1.199091
 C        -0.340284        -1.197895         0.358161
 O         0.635520        -2.049678         0.815529
 C        -1.415279        -1.518473        -0.813658
 O        -2.156970        -2.726791        -0.610631
 H         2.088235        -0.188086        -0.371246
 H         1.718632         1.717013        -0.412161
 H         1.924367         0.827540         1.056944
 H        -1.413874         1.941687        -0.487444
 H        -3.188299         0.004846        -0.455645
 H        -1.619368        -0.107742         2.126527
 H        -2.340119        -1.747251         1.449665
 H         0.331692        -2.998222         0.697982
 H        -1.083016        -1.449896        -1.872750
 H        -2.813376        -2.715270        -1.420285
