19
Iteration:  1305
 C         1.508312         0.700244         0.059935
 C         0.126664         0.206687        -0.048070
 C        -0.968839         0.775551        -0.632696
 C        -2.151598        -0.256957        -0.334675
 C        -1.845572        -0.592505         1.186984
 C        -0.487332        -1.209223         0.443626
 O         0.514852        -2.013825         0.999075
 C        -1.316213        -1.557242        -0.753622
 O        -2.036914        -2.804768        -0.550564
 H         1.563809         1.528320        -0.601497
 H         1.907551         1.003382         1.130745
 H         2.250181        -0.027866        -0.285676
 H        -0.853935         1.732680        -1.265053
 H        -3.125390         0.032819        -0.781417
 H        -1.452920         0.156579         1.834235
 H        -2.461255        -1.441354         1.536876
 H        -0.006150        -2.712612         1.486347
 H        -0.900019        -1.538810        -1.807365
 H        -1.914329        -3.300758        -1.348757
