19
Iteration:  4444
 C         1.600679         0.534306        -0.092412
 C         0.149322         0.037978        -0.215139
 C        -0.785282         0.333189        -1.194010
 C        -1.942032        -0.557166        -0.868789
 C        -1.981320        -0.234296         0.691826
 C        -0.566363        -0.895669         0.678071
 O         0.132345        -1.315392         1.777924
 C        -1.131691        -1.898164        -0.554462
 O        -2.031963        -2.945370        -0.117036
 H         1.846740         1.211861        -0.925089
 H         1.673752         0.913142         0.960665
 H         2.331960        -0.309490        -0.271491
 H        -0.644296         0.981098        -2.074258
 H        -2.752508        -0.487098        -1.653276
 H        -1.811491         0.801481         0.871200
 H        -2.736466        -0.782167         1.369661
 H         0.793389        -1.913447         1.571268
 H        -0.456154        -2.331013        -1.393450
 H        -2.938886        -2.612780        -0.208405
