19
Iteration:  1532charge 0 multiplicity 1
 C         1.559742         0.669868         0.097874
 C         0.118914         0.139346        -0.172265
 C        -1.020796         0.821800        -0.599266
 C        -2.100108        -0.178522        -0.327191
 C        -1.742957        -0.588341         1.122724
 C        -0.492999        -1.185215         0.366630
 O         0.482535        -2.018623         1.058572
 C        -1.369805        -1.555320        -0.846874
 O        -2.074328        -2.892187        -0.582066
 H         2.222456         0.804189        -0.726864
 H         1.577894         1.663066         0.699074
 H         2.021656        -0.072156         0.845530
 H        -1.273792         1.829355        -0.728659
 H        -3.100759         0.157364        -0.651552
 H        -1.664936         0.250578         1.801485
 H        -2.341620        -1.367018         1.596660
 H        -0.032764        -2.162635         1.817398
 H        -0.947970        -1.538842        -1.862514
 H        -1.377320        -3.347692        -0.001762
