19
Iteration:  4817charge 0 multiplicity 1
 C         1.616800         0.432161        -0.115517
 C         0.228572         0.082071        -0.262674
 C        -0.594496         0.080286        -1.409946
 C        -1.869391        -0.610454        -1.025847
 C        -2.007473         0.039382         0.475200
 C        -0.649257        -0.806846         0.661156
 O        -0.157392        -1.248121         1.862004
 C        -1.228954        -1.909602        -0.413224
 O        -1.969018        -2.946089         0.175709
 H         2.286693        -0.366187        -0.403380
 H         1.853337         1.390532        -0.621473
 H         1.700312         0.511165         0.962509
 H        -0.478809         0.689898        -2.425767
 H        -2.748236        -0.846745        -1.604729
 H        -1.738859         1.136389         0.599801
 H        -2.683491        -0.501673         1.097231
 H         0.742692        -1.346554         1.770675
 H        -0.360971        -2.341549        -0.903397
 H        -1.483741        -3.753012         0.180118
