19
Iteration:  3335charge 0 multiplicity 1
 C         1.624691         0.557275        -0.054625
 C         0.110612         0.251364        -0.076479
 C        -1.066837         0.768483        -0.599607
 C        -2.222889        -0.264345        -0.316383
 C        -1.816196        -0.728800         1.142292
 C        -0.475685        -1.107591         0.529228
 O         0.442078        -1.930881         1.092177
 C        -1.242052        -1.516136        -0.732430
 O        -1.929405        -2.794124        -0.621208
 H         2.065999         0.626831        -1.052010
 H         1.831344         1.598154         0.387594
 H         2.137402        -0.132619         0.608936
 H        -1.321365         1.706062        -0.937198
 H        -3.212821        -0.102529        -0.853368
 H        -1.946820        -0.034643         2.039870
 H        -2.385294        -1.593174         1.466523
 H         0.234804        -2.798187         0.836187
 H        -0.704850        -1.456749        -1.634074
 H        -2.792983        -2.599583        -0.969150
