19
Iteration:  3410
 C         1.522956         0.613573        -0.057490
 C         0.087227         0.220664        -0.070151
 C        -1.011077         0.804961        -0.613268
 C        -2.118908        -0.253971        -0.379039
 C        -1.775662        -0.715105         1.082068
 C        -0.443124        -1.080850         0.522266
 O         0.462740        -1.947245         1.226107
 C        -1.304098        -1.588085        -0.816965
 O        -2.028930        -2.776229        -0.685353
 H         1.697742         1.525245         0.566245
 H         2.058393        -0.319690         0.357735
 H         1.979375         0.790906        -1.091404
 H        -1.091963         1.592376        -1.292191
 H        -3.216048        -0.113690        -0.580689
 H        -1.799061         0.008735         1.910355
 H        -2.467844        -1.549840         1.337170
 H        -0.174096        -2.231256         1.955105
 H        -0.656095        -1.637767        -1.740221
 H        -1.717374        -3.363564         0.039521
