19
Iteration:  2205
 C         1.506265         0.666329         0.212062
 C         0.037361         0.301434         0.091818
 C        -1.073149         0.892992        -0.393259
 C        -2.190619        -0.204967        -0.171132
 C        -1.626439        -0.773710         1.291069
 C        -0.400360        -1.180975         0.384263
 O         0.589472        -2.160194         0.574853
 C        -1.354070        -1.449138        -0.817568
 O        -2.082013        -2.752908        -0.648787
 H         2.070033        -0.229627        -0.229564
 H         1.709975         1.477590        -0.404009
 H         1.777214         0.749899         1.249431
 H        -1.296795         1.887755        -0.534377
 H        -3.256901        -0.139707        -0.456728
 H        -1.653657         0.036050         1.983079
 H        -2.291175        -1.567273         1.653326
 H         0.226981        -2.932091         0.186272
 H        -0.780441        -1.361269        -1.774169
 H        -2.366287        -3.198139        -1.534429
