19
Iteration:  4462
 C         1.557334         0.594391        -0.090339
 C         0.209908         0.163299        -0.322810
 C        -0.734435         0.372236        -1.325189
 C        -1.873538        -0.601665        -0.797085
 C        -1.912194        -0.182326         0.725723
 C        -0.533105        -0.906442         0.615997
 O         0.066151        -1.400498         1.844443
 C        -1.201698        -1.939185        -0.442096
 O        -2.072460        -3.003394        -0.174876
 H         1.695978         1.687556        -0.283032
 H         1.850562         0.417763         0.934704
 H         2.249808         0.040587        -0.706264
 H        -0.629569         0.765511        -2.306530
 H        -2.844130        -0.599577        -1.295464
 H        -1.965425         0.965000         0.928828
 H        -2.670464        -0.745027         1.221062
 H         0.671245        -2.053064         1.563388
 H        -0.400827        -2.204208        -1.061309
 H        -2.970923        -2.677420         0.077467
