19
Iteration:  2659charge 0 multiplicity 1
 C         1.452261         0.799458         0.092287
 C         0.117144         0.281349         0.169045
 C        -1.021719         0.858068        -0.092568
 C        -2.106860        -0.194640        -0.020066
 C        -1.705404        -0.909781         1.221932
 C        -0.439645        -1.225440         0.383970
 O         0.517629        -2.261307         0.477737
 C        -1.362597        -1.399629        -0.850452
 O        -2.111241        -2.713274        -0.829907
 H         1.518045         1.780996         0.568207
 H         2.209067         0.246605         0.667852
 H         1.907155         0.898810        -0.863470
 H        -1.203103         1.804406        -0.434995
 H        -3.119698         0.101197        -0.411145
 H        -1.651688        -0.271192         2.039129
 H        -2.256225        -1.834129         1.498309
 H         0.867388        -2.235928         1.329392
 H        -0.896490        -1.275918        -1.817780
 H        -2.038575        -3.008397        -1.677103
