19
Iteration:    71
 C         1.469319         0.768447         0.322849
 C         0.089152         0.221344        -0.049303
 C        -1.072671         0.789975        -0.230536
 C        -2.078532        -0.313934         0.070170
 C        -1.563553        -0.946215         1.394121
 C        -0.359628        -1.193616         0.307883
 O         0.629303        -2.175418         0.399946
 C        -1.499410        -1.348187        -0.795605
 O        -2.241454        -2.554284        -0.938099
 H         2.160626        -0.188142         0.277154
 H         1.839798         1.508525        -0.415172
 H         1.424557         1.111663         1.371288
 H        -1.372258         1.850192        -0.453695
 H        -3.138902        -0.007386        -0.044731
 H        -1.250955        -0.399095         2.287628
 H        -2.201189        -1.810731         1.657704
 H         0.418663        -2.805311         1.086536
 H        -1.224318        -1.067205        -1.829979
 H        -1.639524        -3.113702        -1.461630
