19
Iteration:  4678
 C         1.635804         0.459880        -0.064748
 C         0.208024         0.121563        -0.322201
 C        -0.655835         0.306707        -1.398146
 C        -1.878572        -0.636795        -1.008594
 C        -1.970965        -0.185705         0.567875
 C        -0.571651        -0.860484         0.546415
 O        -0.154587        -1.277706         1.818008
 C        -1.118588        -1.936683        -0.401839
 O        -2.046125        -2.844683         0.191198
 H         1.815608         1.567224        -0.051827
 H         1.951247         0.158579         0.975725
 H         2.310094        -0.029447        -0.816734
 H        -0.763903         0.975669        -2.295259
 H        -2.880547        -0.787198        -1.408301
 H        -1.871207         0.919380         0.751211
 H        -2.706573        -0.769302         0.957654
 H         0.632533        -1.925328         1.878344
 H        -0.420715        -2.424420        -1.176168
 H        -1.614363        -3.793990         0.174891
