19
Iteration:  3364charge 0 multiplicity 1
 C         1.500834         0.635649        -0.100877
 C         0.068301         0.184464         0.024293
 C        -1.008630         0.761458        -0.567017
 C        -2.172218        -0.180340        -0.310911
 C        -1.780338        -0.547744         1.138205
 C        -0.435902        -1.165645         0.540806
 O         0.465675        -2.002434         1.193928
 C        -1.340191        -1.547208        -0.776732
 O        -1.877269        -2.877372        -0.767108
 H         1.365001         1.310213        -0.951644
 H         1.764236         1.059422         0.902344
 H         2.091904        -0.297757        -0.380548
 H        -1.016416         1.538266        -1.362711
 H        -3.085292         0.111463        -0.786410
 H        -1.723933         0.266522         1.800859
 H        -2.477381        -1.314786         1.621601
 H         0.183696        -2.886928         1.115985
 H        -0.807252        -1.392203        -1.815488
 H        -2.640537        -2.872949        -0.214453
