19
Iteration:  1334charge 0 multiplicity 1
 C         1.516986         0.553778        -0.004795
 C         0.083189         0.241255        -0.194879
 C        -1.032370         0.833429        -0.606374
 C        -2.156550        -0.301374        -0.242687
 C        -1.733668        -0.593519         1.167661
 C        -0.418633        -1.096587         0.466915
 O         0.368212        -1.996791         1.163114
 C        -1.312297        -1.520698        -0.785446
 O        -1.847938        -2.863318        -0.675866
 H         1.617971         1.629400        -0.141577
 H         1.787049         0.326836         0.980974
 H         2.187348         0.067528        -0.728355
 H        -1.048569         1.758357        -1.174042
 H        -3.200524        -0.067275        -0.502574
 H        -1.589152         0.168853         1.991018
 H        -2.241169        -1.455789         1.547824
 H        -0.403636        -2.565957         1.501272
 H        -1.004830        -1.449556        -1.817842
 H        -2.736972        -2.913609        -0.930253
