19
Iteration:   661
 C         1.430765         0.522478        -0.155263
 C        -0.000626         0.261871         0.061006
 C        -1.110505         0.831467        -0.251376
 C        -2.184739        -0.184107        -0.003202
 C        -1.661723        -0.805227         1.314541
 C        -0.395700        -1.122555         0.485366
 O         0.519287        -2.231986         0.819702
 C        -1.435736        -1.401884        -0.723054
 O        -1.963933        -2.640992        -1.046310
 H         1.897816         1.256343         0.608870
 H         2.125358        -0.266402        -0.053172
 H         1.743794         1.078686        -1.038863
 H        -1.221495         1.821751        -0.728035
 H        -3.254363        -0.003201        -0.211255
 H        -1.581874        -0.066787         2.121922
 H        -2.214918        -1.665281         1.630099
 H         1.225819        -1.997608         1.509020
 H        -1.092141        -0.964403        -1.716551
 H        -1.183847        -3.320342        -1.117947
