19
Iteration:  1255
 C         1.453125         0.651145         0.140321
 C         0.076281         0.244253        -0.123403
 C        -1.004913         0.823586        -0.581573
 C        -2.053163        -0.317076        -0.350641
 C        -1.656124        -0.726047         1.138725
 C        -0.413839        -1.241233         0.414293
 O         0.551786        -1.945754         1.064802
 C        -1.345869        -1.586888        -0.826277
 O        -2.214988        -2.682275        -0.605209
 H         1.923227         1.236099        -0.752927
 H         1.442828         1.408220         0.856660
 H         2.152280        -0.046332         0.690058
 H        -1.203359         1.689132        -1.269997
 H        -3.093156        -0.166915        -0.709380
 H        -1.610950         0.297118         1.570033
 H        -2.319474        -1.585420         1.547262
 H         0.608877        -2.921335         0.782701
 H        -0.979327        -1.667313        -1.879113
 H        -1.938014        -3.228362         0.198438
