19
Iteration:  1267charge 0 multiplicity 1
 C         1.517035         0.725458         0.153339
 C         0.085341         0.223444        -0.055963
 C        -1.017320         0.803334        -0.675746
 C        -2.071830        -0.286744        -0.398029
 C        -1.778534        -0.754166         1.124506
 C        -0.410264        -1.151430         0.383959
 O         0.592648        -1.992942         1.037651
 C        -1.295594        -1.617131        -0.774504
 O        -2.240000        -2.659307        -0.554510
 H         1.909453         1.144211        -0.833641
 H         1.581757         1.429913         0.910056
 H         2.142679        -0.177198         0.301310
 H        -1.093121         1.837424        -0.966320
 H        -3.130807        -0.320581        -0.697001
 H        -1.601710        -0.105568         2.028157
 H        -2.473863        -1.521310         1.525708
 H         0.429684        -2.865119         0.761107
 H        -0.792829        -1.705809        -1.770457
 H        -1.922167        -3.448953         0.043127
