19
Iteration:   496charge 0 multiplicity 1
 C         1.550503         0.648461         0.057065
 C         0.032054         0.296418         0.018233
 C        -1.091590         0.848472        -0.221985
 C        -2.178092        -0.201138        -0.134977
 C        -1.774599        -0.912737         1.185136
 C        -0.394168        -1.190553         0.394976
 O         0.647525        -2.160456         0.677125
 C        -1.392028        -1.375054        -0.784860
 O        -1.991829        -2.664405        -0.715450
 H         1.949859         0.681329        -1.021179
 H         1.654120         1.607298         0.587971
 H         2.239876        -0.110112         0.474176
 H        -1.347812         1.799166        -0.692725
 H        -3.240219        -0.059001        -0.272875
 H        -1.849128        -0.328043         2.067744
 H        -2.383552        -1.787129         1.352758
 H         0.222936        -2.985244         0.871269
 H        -0.816598        -1.273438        -1.752005
 H        -2.892960        -2.576761        -1.044565
