19
Iteration:  1001charge 0 multiplicity 1
 C         1.479147         0.716501         0.158226
 C         0.111559         0.224218        -0.057320
 C        -0.976562         0.812760        -0.614146
 C        -2.117019        -0.210558        -0.207658
 C        -1.689634        -0.680845         1.264935
 C        -0.509370        -1.136037         0.404692
 O         0.395461        -2.197028         0.777694
 C        -1.440358        -1.475299        -0.754809
 O        -1.967744        -2.796996        -0.637492
 H         1.823017         0.878591         1.208062
 H         2.209019         0.131089        -0.347739
 H         1.695059         1.737209        -0.257743
 H        -1.158872         1.766834        -1.129293
 H        -3.107049        -0.058555        -0.618231
 H        -1.428928         0.134373         1.987153
 H        -2.353722        -1.526424         1.629455
 H         0.537679        -2.108696         1.701007
 H        -1.000162        -1.445185        -1.740026
 H        -1.320059        -3.486963        -0.886688
