19
Iteration:  4547charge 0 multiplicity 1
 C         1.642377         0.461430        -0.070336
 C         0.204237         0.145261        -0.273545
 C        -0.767297         0.330273        -1.260403
 C        -1.937669        -0.555743        -0.916348
 C        -2.061732        -0.249452         0.581110
 C        -0.599382        -0.824190         0.528668
 O        -0.050486        -1.539910         1.703916
 C        -1.109879        -1.802713        -0.469587
 O        -1.981411        -2.795468         0.117542
 H         1.890748        -0.133218         0.826257
 H         2.359554         0.205793        -0.899175
 H         1.706201         1.526402         0.234154
 H        -0.471859         0.501292        -2.267577
 H        -2.593698        -0.748995        -1.730560
 H        -2.249835         0.843983         0.818332
 H        -2.789254        -0.771080         1.071709
 H         0.958198        -1.479280         1.918596
 H        -0.413686        -2.312575        -1.183317
 H        -1.316396        -3.177082         0.788577
