19
Iteration:   761charge 0 multiplicity 1
 C         1.456464         0.749658         0.092853
 C         0.087940         0.212418        -0.070256
 C        -0.994770         0.783818        -0.474118
 C        -2.161143        -0.271299        -0.043888
 C        -1.577692        -0.785840         1.328539
 C        -0.283582        -1.161432         0.464511
 O         0.687123        -2.121011         0.765498
 C        -1.563735        -1.487386        -0.790755
 O        -2.326290        -2.700155        -0.933366
 H         2.294430         0.108831         0.621434
 H         1.972121         1.096435        -0.772764
 H         1.462946         1.687256         0.738399
 H        -1.251842         1.847920        -0.577668
 H        -3.235024         0.054289        -0.112536
 H        -1.296200        -0.078671         2.125648
 H        -1.997288        -1.692182         1.644131
 H         0.572853        -2.500649         1.654664
 H        -1.188595        -1.306549        -1.856268
 H        -1.635520        -3.426291        -0.758323
