19
Iteration:  2957charge 0 multiplicity 1
 C         1.471666         0.748896         0.010935
 C         0.068191         0.275870         0.018705
 C        -1.089195         0.862047        -0.375815
 C        -2.114888        -0.140140        -0.125397
 C        -1.801105        -0.839063         1.184453
 C        -0.432956        -1.125728         0.461766
 O         0.373773        -2.362893         0.773743
 C        -1.304371        -1.447170        -0.796217
 O        -1.923191        -2.686191        -0.798272
 H         1.900975         1.008565         1.017981
 H         2.120669        -0.088336        -0.259297
 H         1.776494         1.588423        -0.591784
 H        -1.185515         1.877601        -0.548303
 H        -3.159254         0.137057        -0.272371
 H        -1.727181        -0.233057         2.171458
 H        -2.428606        -1.738661         1.319695
 H         1.281937        -2.123244         1.211474
 H        -0.968492        -1.203742        -1.775791
 H        -1.358002        -3.328946        -0.310927
