19
Iteration:  3597
 C         1.583841         0.514147        -0.035477
 C         0.100205         0.147853        -0.094851
 C        -0.953717         0.719775        -0.751479
 C        -2.151706        -0.325706        -0.497617
 C        -1.818143        -0.573158         1.076952
 C        -0.475706        -1.059786         0.475273
 O         0.347026        -1.719588         1.309814
 C        -1.269324        -1.610909        -0.778177
 O        -2.030250        -2.871211        -0.496079
 H         1.820951         1.389427         0.588093
 H         2.195537        -0.263521         0.521955
 H         2.196856         0.728497        -0.931468
 H        -0.867805         1.462754        -1.504520
 H        -3.188774        -0.103947        -0.745878
 H        -1.599499         0.358296         1.687632
 H        -2.467146        -1.207351         1.601723
 H        -0.255333        -2.278596         1.906074
 H        -0.571514        -1.663419        -1.719061
 H        -1.485304        -3.574898        -1.025363
