19
Iteration:   651
 C         1.477491         0.584652        -0.128488
 C         0.037071         0.204396         0.027710
 C        -1.196466         0.875711        -0.287441
 C        -2.182740        -0.204866         0.012724
 C        -1.631462        -0.871456         1.329470
 C        -0.407806        -1.235151         0.445665
 O         0.557002        -2.222796         0.905390
 C        -1.360257        -1.348104        -0.840678
 O        -2.052388        -2.582379        -1.021053
 H         1.682202         1.340258         0.670851
 H         2.020354        -0.312917         0.051890
 H         1.610693         0.926379        -1.153203
 H        -1.261903         1.791578        -0.902835
 H        -3.261550         0.059547        -0.013745
 H        -1.394648        -0.204261         2.155219
 H        -2.141353        -1.688335         1.710629
 H         1.036680        -1.702924         1.594487
 H        -0.888410        -1.009522        -1.809737
 H        -1.273739        -3.249078        -1.046054
