19
Iteration:  1597charge 0 multiplicity 1
 C         1.512259         0.506662        -0.231166
 C         0.105982         0.234991         0.011725
 C        -1.039287         0.856036        -0.432803
 C        -2.043571        -0.178558        -0.354019
 C        -1.878475        -0.760582         1.091612
 C        -0.469957        -1.126904         0.509317
 O         0.409203        -2.015758         1.169214
 C        -1.239592        -1.477394        -0.741029
 O        -2.006747        -2.759859        -0.665730
 H         2.042630        -0.390472        -0.472206
 H         1.674905         1.311481        -1.011015
 H         2.079402         0.772954         0.716689
 H        -1.028184         1.787524        -1.029626
 H        -3.058662        -0.089467        -0.761320
 H        -2.197965        -0.029579         1.823875
 H        -2.381569        -1.714273         1.297691
 H         0.376481        -1.859665         2.148831
 H        -0.867841        -1.389975        -1.766617
 H        -1.409854        -3.501722        -1.112017
