19
Iteration:  3795
 C         1.535405         0.663924        -0.089018
 C         0.168295         0.144309        -0.215853
 C        -0.855128         0.655480        -0.970448
 C        -1.984056        -0.279287        -0.634946
 C        -1.851451        -0.401484         0.954277
 C        -0.508334        -1.023224         0.593650
 O         0.155238        -1.843758         1.562511
 C        -1.280459        -1.738372        -0.649995
 O        -1.985864        -2.965353        -0.413881
 H         1.547630         1.716456         0.347433
 H         2.360476         0.164214         0.517334
 H         1.913469         0.856105        -1.073278
 H        -0.832313         1.564465        -1.642984
 H        -2.931671        -0.128610        -1.071591
 H        -1.629407         0.471555         1.540092
 H        -2.600454        -1.149437         1.340196
 H         0.543584        -2.609003         0.962606
 H        -0.604950        -1.936602        -1.516602
 H        -2.136968        -3.128562         0.509414
