19
Iteration:  3685charge 0 multiplicity 1
 C         1.605743         0.567726        -0.003634
 C         0.094874         0.192729        -0.275835
 C        -0.983849         0.750023        -0.839478
 C        -2.017063        -0.283768        -0.570148
 C        -1.822769        -0.540170         0.975163
 C        -0.499760        -1.070158         0.515837
 O         0.309963        -1.858278         1.418063
 C        -1.281375        -1.632550        -0.711542
 O        -1.957408        -2.873258        -0.341857
 H         2.388260        -0.233622        -0.119452
 H         1.635865         1.421464        -0.797230
 H         1.638793         1.049652         0.974408
 H        -1.069468         1.297581        -1.773297
 H        -3.016454        -0.205005        -0.877537
 H        -1.761223         0.316403         1.700123
 H        -2.436167        -1.342229         1.371758
 H        -0.185350        -2.174570         2.164990
 H        -0.575131        -1.805450        -1.605274
 H        -2.366561        -3.288025        -1.199981
