19
Iteration:  1585
 C         1.564766         0.531837        -0.182684
 C         0.088209         0.245416        -0.004638
 C        -0.980949         0.802138        -0.600503
 C        -2.171523        -0.305091        -0.304478
 C        -1.890590        -0.703752         1.154135
 C        -0.455666        -1.050173         0.594084
 O         0.394326        -2.087365         1.102504
 C        -1.311358        -1.485581        -0.727654
 O        -1.933375        -2.683290        -0.682134
 H         2.026097        -0.290649        -0.754137
 H         1.792985         1.460178        -0.688734
 H         1.992265         0.625338         0.853755
 H        -1.079630         1.631344        -1.251762
 H        -3.169756        -0.030526        -0.671009
 H        -1.932403         0.019157         2.010874
 H        -2.406173        -1.643626         1.340118
 H         0.207530        -2.064793         2.022014
 H        -0.590747        -1.364147        -1.562428
 H        -1.294457        -3.292381        -1.034368
