19
Iteration:  2673charge 0 multiplicity 1
 C         1.542987         0.883016         0.197757
 C         0.101333         0.198137         0.084558
 C        -1.058959         0.918068        -0.278215
 C        -2.110994        -0.169931        -0.060122
 C        -1.632280        -0.943769         1.313995
 C        -0.403042        -1.249862         0.364355
 O         0.501403        -2.285506         0.541433
 C        -1.462750        -1.456580        -0.764065
 O        -2.143054        -2.706682        -0.902235
 H         1.486308         1.875471         0.785661
 H         2.205339         0.130387         0.631762
 H         1.744526         1.139382        -0.841409
 H        -1.170789         2.036879        -0.317812
 H        -3.169189         0.074416         0.029608
 H        -1.399823        -0.431258         2.237500
 H        -2.321157        -1.767537         1.390297
 H         1.179126        -2.027108         1.301756
 H        -1.088261        -1.093687        -1.796033
 H        -1.881438        -3.089893        -1.839133
