19
Iteration:  3308
 C         1.468038         0.541791         0.004892
 C         0.056577         0.241114        -0.002697
 C        -1.005584         0.867474        -0.518511
 C        -2.118407        -0.233933        -0.343571
 C        -1.779387        -0.730640         1.102501
 C        -0.442415        -1.169088         0.464651
 O         0.529336        -1.946245         1.023174
 C        -1.303881        -1.511551        -0.865431
 O        -1.999439        -2.794372        -0.501116
 H         2.176062        -0.016195        -0.624998
 H         1.646328         1.578758        -0.306805
 H         1.817444         0.532634         1.072460
 H        -1.161600         1.823905        -1.132719
 H        -3.103129        -0.026568        -0.713173
 H        -1.743172        -0.024549         1.903752
 H        -2.466035        -1.534273         1.444617
 H         0.091614        -2.703867         1.361285
 H        -0.990711        -1.468634        -1.984672
 H        -2.197452        -3.235062        -1.339642
