19
Iteration:  1761charge 0 multiplicity 1
 C         1.489765         0.645534         0.205140
 C         0.124690         0.199197        -0.091946
 C        -1.025815         0.863854        -0.589979
 C        -2.117664        -0.209734        -0.255974
 C        -1.754871        -0.566582         1.194764
 C        -0.442788        -1.123873         0.467713
 O         0.566729        -2.099721         0.787219
 C        -1.322104        -1.568021        -0.800148
 O        -2.178197        -2.859161        -0.655501
 H         1.419740         1.747160         0.334530
 H         1.787526         0.134605         1.172177
 H         2.258916         0.434698        -0.574214
 H        -1.129805         1.846999        -0.995487
 H        -3.145792        -0.137532        -0.557510
 H        -1.502676         0.286805         1.836855
 H        -2.373060        -1.331125         1.777906
 H         0.453939        -2.627100         1.589503
 H        -0.873588        -1.356977        -1.804286
 H        -1.490774        -3.409565        -0.332057
