19
Iteration:  4744
 C         1.649967         0.537411        -0.087313
 C         0.186288         0.079216        -0.359268
 C        -0.650160         0.188508        -1.363906
 C        -1.820118        -0.658818        -1.007570
 C        -1.924377        -0.135869         0.530108
 C        -0.608859        -0.875858         0.672190
 O        -0.011236        -1.215103         1.917903
 C        -1.191779        -1.973735        -0.405521
 O        -2.209080        -2.931635         0.030921
 H         1.744244         0.613522         1.036606
 H         2.515884         0.063013        -0.626563
 H         1.606972         1.649057        -0.275918
 H        -0.239636         0.603105        -2.343779
 H        -2.701930        -0.645278        -1.717169
 H        -1.806970         1.024980         0.687631
 H        -2.759704        -0.630216         0.959754
 H         0.954606        -1.297719         1.706997
 H        -0.469391        -2.559006        -1.048728
 H        -1.994293        -3.261300         0.854711
