19
Iteration:  3888
 C         1.612508         0.457269        -0.181516
 C         0.172296         0.180953        -0.115334
 C        -0.831098         0.684799        -0.924228
 C        -2.086779        -0.329990        -0.699603
 C        -2.041090        -0.455740         0.884644
 C        -0.547850        -0.993176         0.591964
 O         0.208839        -1.651622         1.602269
 C        -1.246813        -1.730523        -0.652635
 O        -1.942473        -2.927989        -0.356934
 H         2.144392        -0.441355        -0.527924
 H         1.818847         1.279102        -0.861808
 H         2.075670         0.637250         0.855298
 H        -0.654920         1.176478        -1.865738
 H        -3.020203        -0.263222        -1.287964
 H        -1.940861         0.455045         1.536656
 H        -2.706830        -1.187251         1.212858
 H         1.069031        -1.888188         1.412474
 H        -0.670938        -1.847214        -1.643132
 H        -1.723409        -3.267399         0.552267
