19
Iteration:   289
 C         1.498466         0.814896         0.223886
 C         0.095280         0.246332         0.081706
 C        -1.079110         0.789901        -0.335748
 C        -2.135859        -0.258340         0.015646
 C        -1.497803        -1.023798         1.269152
 C        -0.288108        -1.216264         0.285698
 O         0.682101        -2.165699         0.609222
 C        -1.555331        -1.406764        -0.887132
 O        -2.366559        -2.588445        -0.851568
 H         1.539131         1.778776         0.866796
 H         2.131134         0.112038         0.715535
 H         1.863977         0.966390        -0.765177
 H        -1.170719         1.803644        -0.473017
 H        -3.177677         0.108242        -0.058644
 H        -1.201147        -0.423839         2.095061
 H        -2.029498        -1.941450         1.520121
 H         0.795374        -2.141379         1.643096
 H        -1.234880        -1.134333        -1.880794
 H        -1.981310        -3.281761        -1.517622
