19
Iteration:  2439charge 0 multiplicity 1
 C         1.407178         0.666897         0.170865
 C         0.047943         0.216942         0.017824
 C        -1.026487         0.899229        -0.186374
 C        -2.138739        -0.183264        -0.055324
 C        -1.586985        -0.914334         1.274390
 C        -0.401597        -1.149840         0.288908
 O         0.671509        -2.187275         0.611253
 C        -1.484597        -1.427705        -0.800890
 O        -2.147328        -2.687980        -0.855833
 H         1.501572         1.674599        -0.158930
 H         1.872929         0.687945         1.213375
 H         2.118977         0.064907        -0.451931
 H        -1.191549         1.930530        -0.263639
 H        -3.161225        -0.095623        -0.332721
 H        -1.233106        -0.501972         2.183714
 H        -2.226871        -1.727658         1.294947
 H         0.784270        -2.243780         1.580846
 H        -1.108102        -1.235496        -1.864871
 H        -2.503000        -2.714640        -1.689551
