19
Iteration:   724
 C         1.486339         0.674007        -0.065251
 C         0.053858         0.276320         0.042191
 C        -1.100467         0.948729        -0.261632
 C        -2.138313        -0.178319        -0.104179
 C        -1.655982        -0.960734         1.216201
 C        -0.397078        -1.194474         0.362326
 O         0.516417        -2.239352         0.693791
 C        -1.357069        -1.430130        -0.855535
 O        -2.053178        -2.620346        -0.704690
 H         1.952424         0.183130         0.734741
 H         1.866051         0.301245        -1.017861
 H         1.497894         1.736128        -0.022973
 H        -1.312974         1.982859        -0.464061
 H        -3.172065        -0.013645        -0.385862
 H        -1.528419        -0.342853         2.155022
 H        -2.347814        -1.801072         1.499467
 H         0.482107        -2.282233         1.705303
 H        -0.959698        -1.223306        -1.845751
 H        -1.544856        -3.275737        -0.084256
