19
Iteration:  2000
 C         1.487051         0.753948         0.167520
 C         0.085944         0.161415        -0.132097
 C        -1.022696         0.808869        -0.373476
 C        -2.101272        -0.196006        -0.141543
 C        -1.610983        -0.721589         1.215638
 C        -0.418266        -1.198320         0.364811
 O         0.620291        -2.091737         0.800648
 C        -1.441781        -1.518386        -0.787528
 O        -2.210920        -2.752510        -0.774168
 H         1.510510         0.918095         1.296904
 H         2.301192         0.122921        -0.080596
 H         1.543904         1.703094        -0.410662
 H        -1.085142         1.836142        -0.857005
 H        -3.158284         0.108837        -0.328316
 H        -1.370580        -0.071022         2.042317
 H        -2.248275        -1.459001         1.699706
 H         0.149316        -2.774935         1.315707
 H        -1.215104        -1.245683        -1.810658
 H        -1.673061        -3.577424        -0.939135
