19
Iteration:  2465charge 0 multiplicity 1
 C         1.513287         0.612401         0.224582
 C         0.095684         0.239975         0.005337
 C        -1.157263         0.773647        -0.317219
 C        -2.199455        -0.259074         0.085648
 C        -1.653391        -0.913006         1.353801
 C        -0.450281        -1.138925         0.361182
 O         0.586916        -2.187573         0.501636
 C        -1.400243        -1.370222        -0.865446
 O        -2.027500        -2.593814        -0.852208
 H         2.098250         1.448292        -0.284670
 H         1.553148         0.884851         1.298604
 H         2.223887        -0.181422         0.089542
 H        -1.391250         1.708431        -0.939959
 H        -3.305667        -0.090036        -0.064908
 H        -1.261254        -0.252087         2.168755
 H        -2.425235        -1.660291         1.766305
 H         1.313135        -1.888021         0.992145
 H        -1.141098        -1.040241        -1.907227
 H        -2.554510        -2.636797        -1.575122
