19
Iteration:  4913charge 0 multiplicity 1
 C         1.605343         0.465486        -0.140459
 C         0.181793         0.046788        -0.371298
 C        -0.547000         0.059974        -1.450253
 C        -1.805297        -0.675186        -0.971041
 C        -2.041921        -0.088451         0.481521
 C        -0.721843        -0.796554         0.655160
 O        -0.029800        -1.137435         1.958721
 C        -1.120738        -1.936601        -0.337929
 O        -1.972474        -2.946089         0.103627
 H         1.865991         1.446629        -0.656606
 H         1.792613         0.457988         0.964526
 H         2.219467        -0.335945        -0.659794
 H        -0.329412         0.336024        -2.512695
 H        -2.636803        -0.803047        -1.627322
 H        -2.008158         0.942939         0.495207
 H        -2.910483        -0.644185         0.967304
 H        -0.543597        -0.739817         2.708626
 H        -0.140779        -2.283694        -0.808720
 H        -2.840207        -2.802515        -0.092248
