19
Iteration:  3811charge 0 multiplicity 1
 C         1.624722         0.685549        -0.106649
 C         0.174756         0.109887        -0.206233
 C        -0.787295         0.530796        -0.944868
 C        -2.071203        -0.322204        -0.615246
 C        -1.916431        -0.308270         1.037025
 C        -0.557972        -1.044543         0.570503
 O         0.126770        -1.789277         1.519553
 C        -1.320643        -1.703898        -0.632660
 O        -1.927955        -2.980663        -0.475923
 H         1.731707         1.306636         0.780766
 H         2.279178        -0.181425        -0.104650
 H         1.957646         1.272973        -1.057336
 H        -0.768591         1.459063        -1.454096
 H        -3.042254        -0.187748        -1.221944
 H        -2.003834         0.733565         1.489682
 H        -2.503453        -1.010828         1.627130
 H         0.957936        -2.334561         1.222966
 H        -0.679983        -1.730530        -1.572103
 H        -1.832812        -3.246207         0.508023
