19
Iteration:  3777charge 0 multiplicity 1
 C         1.538325         0.702845        -0.072630
 C         0.181216         0.164179        -0.138291
 C        -0.876035         0.608847        -0.929855
 C        -2.038896        -0.351039        -0.596128
 C        -1.857920        -0.443151         0.933657
 C        -0.464507        -1.113968         0.487173
 O         0.198198        -1.819585         1.505327
 C        -1.197504        -1.727836        -0.698834
 O        -1.995681        -2.826626        -0.350870
 H         1.589976         1.792897         0.027363
 H         1.765790         0.323020         0.936493
 H         2.233148         0.277904        -0.853382
 H        -0.935385         1.168587        -1.862917
 H        -3.067546        -0.200580        -1.073916
 H        -2.028832         0.495922         1.419594
 H        -2.503230        -1.227244         1.413379
 H         0.479539        -2.763392         1.137812
 H        -0.692259        -1.971226        -1.706808
 H        -2.457713        -2.498682         0.413177
