19
Iteration:  2415charge 0 multiplicity 1
 C         1.560732         0.803683         0.055214
 C         0.091197         0.259895         0.081979
 C        -1.046984         0.841079        -0.093394
 C        -2.088562        -0.295385        -0.065137
 C        -1.654546        -1.033113         1.188377
 C        -0.425079        -1.199961         0.299723
 O         0.593595        -2.148951         0.704576
 C        -1.463528        -1.397950        -0.933191
 O        -2.167345        -2.586621        -0.751229
 H         1.608409         1.911335         0.155980
 H         2.245791         0.448765         0.846899
 H         2.115027         0.574857        -0.900895
 H        -1.425373         1.742429        -0.460236
 H        -3.130416         0.003447        -0.204186
 H        -1.599612        -0.262503         1.958750
 H        -2.157151        -1.947161         1.412658
 H         0.179047        -3.022957         1.135589
 H        -0.822360        -1.263757        -1.831652
 H        -2.469998        -3.017635        -1.648248
