19
Iteration:  3469
 C         1.497003         0.634265         0.086561
 C         0.094175         0.281680        -0.109641
 C        -0.999374         0.715849        -0.798976
 C        -2.069807        -0.281678        -0.460127
 C        -1.832131        -0.585402         1.125627
 C        -0.451472        -1.074251         0.526675
 O         0.392200        -2.066652         1.154905
 C        -1.263541        -1.567263        -0.725322
 O        -1.999326        -2.823676        -0.508679
 H         1.999054        -0.226991         0.604256
 H         2.046700         0.549634        -0.875547
 H         1.650632         1.637431         0.497160
 H        -1.282185         1.654373        -1.380872
 H        -3.040699        -0.258911        -0.937277
 H        -1.811576         0.267060         1.869054
 H        -2.535277        -1.398082         1.391029
 H         0.817757        -1.580322         1.809661
 H        -0.666078        -1.549622        -1.574949
 H        -2.124528        -3.198507        -1.345471
