19
Iteration:  1937
 C         1.506001         0.698586         0.072855
 C         0.063160         0.183126         0.035086
 C        -0.964761         0.858181        -0.409949
 C        -2.069246        -0.165470        -0.286049
 C        -1.797754        -0.770953         1.189484
 C        -0.436599        -1.161000         0.493441
 O         0.612647        -2.014355         0.772276
 C        -1.383688        -1.569185        -0.768497
 O        -2.140192        -2.795689        -0.609234
 H         2.269668        -0.028582         0.369963
 H         1.855072         0.986562        -0.993244
 H         1.529968         1.542368         0.808492
 H        -0.979723         1.887134        -0.833635
 H        -3.126152         0.141805        -0.495698
 H        -1.738915        -0.081298         2.101088
 H        -2.500917        -1.686230         1.303396
 H         0.285938        -2.971203         0.726592
 H        -0.954809        -1.385436        -1.799737
 H        -2.161505        -3.188637        -1.582118
