19
Iteration:   103
 C         1.417373         0.643718         0.187032
 C         0.073328         0.223532         0.077854
 C        -1.131463         0.846055        -0.178891
 C        -2.097230        -0.295184         0.017955
 C        -1.448947        -0.981450         1.308719
 C        -0.359254        -1.257224         0.299010
 O         0.769184        -2.042439         0.723687
 C        -1.541307        -1.396590        -0.854606
 O        -2.362376        -2.520555        -1.061155
 H         2.073377         0.194159        -0.650157
 H         1.611196         1.674827         0.008762
 H         1.963756         0.426795         1.027654
 H        -1.340036         1.947876        -0.187212
 H        -3.191424        -0.090222         0.008193
 H        -1.066575        -0.398980         2.126676
 H        -2.044394        -1.818530         1.624303
 H         0.428824        -2.993675         0.575313
 H        -1.175534        -1.032800        -1.826044
 H        -1.683559        -3.153745        -1.481510
