19
Iteration:  3237charge 0 multiplicity 1
 C         1.418266         0.724313         0.056789
 C         0.058548         0.202070        -0.044838
 C        -1.023854         0.795858        -0.590262
 C        -1.995026        -0.218352        -0.253868
 C        -1.638838        -0.761280         1.176018
 C        -0.422321        -1.174510         0.429108
 O         0.489441        -2.018101         1.052260
 C        -1.340421        -1.547854        -0.837814
 O        -2.148946        -2.725888        -0.673641
 H         1.975764         0.431581         0.924575
 H         1.982169         0.254770        -0.757625
 H         1.322538         1.778190        -0.103724
 H        -1.058796         1.871943        -0.861061
 H        -3.077163        -0.301662        -0.474069
 H        -1.490069        -0.073598         2.049534
 H        -2.242236        -1.596998         1.587756
 H        -0.087527        -2.717929         1.286571
 H        -0.810484        -1.410684        -1.750291
 H        -1.600132        -3.435629        -1.056464
