19
Iteration:  4356charge 0 multiplicity 1
 C         1.607239         0.463391        -0.214684
 C         0.176874         0.040141        -0.223123
 C        -0.745762         0.462095        -1.197613
 C        -1.987424        -0.332078        -0.780598
 C        -2.017192        -0.231667         0.703966
 C        -0.585339        -0.922851         0.636475
 O        -0.012586        -1.449107         1.804398
 C        -1.179387        -1.838586        -0.458594
 O        -1.866526        -3.004844        -0.214630
 H         2.312392        -0.196509         0.376187
 H         1.947248         0.798771        -1.244737
 H         1.728421         1.430552         0.419648
 H        -0.408644         0.630797        -2.179124
 H        -2.899280        -0.249491        -1.400879
 H        -2.135949         0.728234         1.206375
 H        -2.801754        -0.991785         1.087824
 H         0.435091        -2.251382         1.450137
 H        -0.475525        -2.051688        -1.371226
 H        -1.836045        -3.125686         0.784347
