19
Iteration:  4991charge 0 multiplicity 1
 C         1.641423         0.567796        -0.008581
 C         0.184365         0.042789        -0.358538
 C        -0.509556        -0.014421        -1.459216
 C        -1.750709        -0.762353        -1.087961
 C        -2.096403        -0.141493         0.383761
 C        -0.697484        -0.779924         0.600952
 O        -0.149671        -1.266725         1.828598
 C        -1.093339        -1.896047        -0.324836
 O        -2.075144        -2.739957         0.301373
 H         1.734284         0.806483         1.079474
 H         2.360107        -0.277939        -0.290714
 H         1.916832         1.453146        -0.638428
 H        -0.185347         0.338966        -2.422980
 H        -2.589446        -1.064269        -1.747682
 H        -2.145030         0.958257         0.433572
 H        -3.042811        -0.666334         0.785313
 H         0.401391        -0.474965         2.185676
 H        -0.371723        -2.486498        -0.993377
 H        -1.601954        -3.527873         0.745379
