19
Iteration:  4477charge 0 multiplicity 1
 C         1.590004         0.666572        -0.092737
 C         0.201465         0.073728        -0.350727
 C        -0.701552         0.173810        -1.348440
 C        -1.933504        -0.437944        -0.845392
 C        -1.899675        -0.236106         0.707592
 C        -0.519526        -0.907742         0.665666
 O         0.009077        -1.395965         1.825910
 C        -1.201782        -1.826157        -0.440356
 O        -2.049815        -3.007880        -0.161008
 H         1.587361         1.747561         0.199887
 H         2.113641         0.176517         0.796869
 H         2.304434         0.453017        -0.947539
 H        -0.727453         1.033426        -2.073728
 H        -2.834734        -0.523106        -1.515749
 H        -1.959320         0.725186         1.155496
 H        -2.622480        -0.832745         1.421248
 H         0.623261        -2.125384         1.680306
 H        -0.594305        -2.331106        -1.280317
 H        -2.633591        -2.796731         0.527805
