19
Iteration:  2782charge 0 multiplicity 1
 C         1.445469         0.644607         0.066473
 C        -0.013994         0.297367         0.047844
 C        -1.128660         0.957454        -0.233541
 C        -2.122828        -0.196880        -0.069171
 C        -1.664810        -0.856163         1.259155
 C        -0.432713        -1.181597         0.390768
 O         0.445872        -2.322824         0.741680
 C        -1.302480        -1.356383        -0.811091
 O        -1.936587        -2.645069        -0.910828
 H         2.050699        -0.292619         0.245375
 H         1.889050         1.111110        -0.795415
 H         1.709624         1.254744         0.933777
 H        -1.560525         2.013854        -0.330211
 H        -3.173748        -0.081290        -0.276317
 H        -1.558404        -0.286561         2.196277
 H        -2.140141        -1.806285         1.393622
 H         0.670235        -2.701248        -0.145416
 H        -0.985134        -1.047762        -1.799646
 H        -1.373607        -3.243583        -0.405559
