19
Iteration:   157
 C         1.420113         0.653693        -0.187305
 C         0.100870         0.316743         0.303546
 C        -1.096342         0.928381        -0.034212
 C        -2.127667        -0.225283         0.020645
 C        -1.721403        -1.054428         1.288828
 C        -0.427369        -1.194878         0.446790
 O         0.554217        -2.208642         0.633675
 C        -1.333866        -1.314390        -0.903064
 O        -1.950686        -2.624516        -0.935833
 H         1.401707         0.827926        -1.322775
 H         1.852097         1.475648         0.321600
 H         2.040692        -0.163977        -0.024132
 H        -1.219384         2.028840        -0.214296
 H        -3.197483         0.094247        -0.130082
 H        -1.624758        -0.471413         2.180082
 H        -2.222891        -1.988774         1.466300
 H         0.037514        -2.986069         1.051960
 H        -0.876744        -1.006017        -1.828034
 H        -2.568047        -2.662606        -1.766422
