19
Iteration:   131
 C         1.513999         0.646558        -0.073882
 C         0.072033         0.217311         0.074831
 C        -1.068340         0.830346        -0.005018
 C        -2.168429        -0.251960         0.011545
 C        -1.755896        -1.146398         1.193664
 C        -0.389288        -1.233323         0.417735
 O         0.761641        -2.039556         0.713078
 C        -1.421101        -1.356702        -0.840767
 O        -2.204564        -2.472049        -0.898015
 H         1.946005         0.708046        -1.046432
 H         1.568543         1.704887         0.336283
 H         2.417269         0.209273         0.510560
 H        -1.265577         1.760888        -0.503189
 H        -3.220222        -0.004593        -0.067577
 H        -1.637787        -0.639678         2.190321
 H        -2.315781        -2.115593         1.206646
 H         0.317979        -2.946336         0.802161
 H        -0.917668        -1.087670        -1.791607
 H        -2.159005        -2.731387        -1.891405
