19
Iteration:  2689
 C         1.447696         0.827342         0.242399
 C         0.156128         0.245525        -0.039201
 C        -1.075595         0.798764        -0.312685
 C        -2.164643        -0.248998         0.038203
 C        -1.559776        -0.941087         1.310490
 C        -0.364817        -1.218858         0.350250
 O         0.534683        -2.315247         0.658311
 C        -1.512802        -1.343439        -0.870081
 O        -2.185941        -2.612601        -0.915584
 H         1.334522         1.503058         1.048367
 H         2.237717         0.107674         0.555334
 H         2.007191         1.408902        -0.548466
 H        -1.275946         1.792671        -0.695024
 H        -3.206389         0.031572        -0.201444
 H        -1.392170        -0.258563         2.232754
 H        -1.924436        -1.968456         1.635771
 H         1.375148        -1.930464         1.058161
 H        -1.146861        -0.989643        -1.818375
 H        -1.674594        -3.158062        -1.673249
