19
Iteration:  1732
 C         1.513447         0.716955         0.196422
 C         0.089547         0.232623         0.008229
 C        -0.935302         0.752165        -0.622862
 C        -2.133411        -0.251518        -0.330832
 C        -1.795251        -0.797799         1.125788
 C        -0.408987        -1.102992         0.382583
 O         0.447600        -2.153147         0.772410
 C        -1.297833        -1.460879        -0.833146
 O        -2.144836        -2.673169        -0.458281
 H         1.443354         1.631644         0.671787
 H         2.121899        -0.127726         0.678733
 H         1.961559         0.912656        -0.773016
 H        -1.030259         1.684457        -1.155899
 H        -3.158681        -0.265139        -0.748792
 H        -1.545795        -0.125341         1.944922
 H        -2.281661        -1.685506         1.423226
 H         0.586527        -2.175169         1.790924
 H        -0.918666        -1.355413        -1.858631
 H        -1.377584        -3.201653         0.002259
