19
Iteration:  4724charge 0 multiplicity 1
 C         1.624333         0.575697        -0.009573
 C         0.210329        -0.030212        -0.321551
 C        -0.517381         0.074574        -1.427770
 C        -1.897820        -0.565450        -0.875423
 C        -2.052239        -0.071840         0.548591
 C        -0.620397        -0.824119         0.579122
 O        -0.056916        -1.254888         1.782546
 C        -1.238886        -1.887830        -0.399804
 O        -2.073335        -2.920988         0.095939
 H         1.783559         1.044520         1.036767
 H         2.349334        -0.240554        -0.144402
 H         1.877208         1.326818        -0.806379
 H        -0.444809         0.685895        -2.360644
 H        -2.665308        -0.665996        -1.707740
 H        -2.027911         0.986357         0.647200
 H        -2.709812        -0.730790         1.059227
 H         0.791029        -1.848721         1.655924
 H        -0.465954        -2.384007        -1.093998
 H        -1.482086        -3.461186         0.695263
