19
Iteration:   664
 C         1.432619         0.530952        -0.152543
 C         0.064075         0.245320         0.082055
 C        -1.122904         0.862120        -0.257408
 C        -2.186038        -0.203719        -0.003045
 C        -1.682119        -0.784647         1.333132
 C        -0.403648        -1.108076         0.505453
 O         0.497863        -2.218158         0.785495
 C        -1.450442        -1.407430        -0.713991
 O        -1.939262        -2.670069        -1.042587
 H         1.854407         1.205730         0.568965
 H         2.082843        -0.360786        -0.159923
 H         1.739357         1.083277        -1.046464
 H        -1.252789         1.807281        -0.653706
 H        -3.245480        -0.006313        -0.290357
 H        -1.593548        -0.043426         2.106184
 H        -2.221672        -1.663079         1.505822
 H         1.210959        -2.056990         1.443024
 H        -1.058232        -0.943822        -1.641078
 H        -1.240107        -3.294048        -1.126592
