19
Iteration:  4147charge 0 multiplicity 1
 C         1.562621         0.350209        -0.090024
 C         0.129115         0.197038        -0.232164
 C        -0.833937         0.463351        -1.170749
 C        -2.014921        -0.404999        -0.716452
 C        -1.902591        -0.187169         0.857593
 C        -0.598752        -0.924440         0.574043
 O         0.036296        -1.522840         1.660635
 C        -1.124473        -1.806797        -0.590874
 O        -1.870230        -2.973193        -0.161250
 H         2.065891        -0.511523        -0.597456
 H         2.084359         1.279703        -0.381896
 H         1.706025         0.138229         0.965354
 H        -1.216399         1.446038        -1.522483
 H        -2.939110        -0.465821        -1.271345
 H        -1.722177         0.946184         1.007333
 H        -2.579406        -0.644726         1.504097
 H         0.856899        -1.815892         1.363291
 H        -0.419275        -1.990887        -1.488268
 H        -2.068989        -3.548548        -0.988063
