19
Iteration:  3369
 C         1.534548         0.645584        -0.114231
 C         0.069880         0.178689         0.030261
 C        -1.029836         0.719820        -0.575419
 C        -2.184356        -0.183770        -0.329658
 C        -1.803664        -0.540442         1.125372
 C        -0.461091        -1.149620         0.544857
 O         0.470941        -2.013811         1.203530
 C        -1.327541        -1.528649        -0.771818
 O        -1.880506        -2.883563        -0.785048
 H         1.513572         1.485915        -0.835312
 H         1.798535         0.955971         0.889636
 H         2.117921        -0.161496        -0.502465
 H        -0.979221         1.578364        -1.235708
 H        -3.208317         0.117026        -0.693207
 H        -1.568120         0.338687         1.818720
 H        -2.360464        -1.340211         1.580847
 H         0.137029        -2.963475         1.236467
 H        -0.866837        -1.365326        -1.693694
 H        -2.558130        -2.856954        -0.045780
