19
Iteration:    93
 C         1.545139         0.676677         0.253967
 C         0.023052         0.241404         0.034582
 C        -1.168747         0.875806        -0.182774
 C        -2.175426        -0.298122         0.085577
 C        -1.430868        -0.938510         1.291186
 C        -0.315717        -1.209328         0.324937
 O         0.739502        -2.109325         0.627413
 C        -1.512821        -1.423347        -0.840251
 O        -2.359462        -2.550981        -1.087884
 H         2.258408        -0.032019        -0.337543
 H         1.547462         1.697135        -0.111474
 H         1.697504         0.574473         1.310001
 H        -1.408433         1.918792        -0.523538
 H        -3.243172         0.000792         0.138563
 H        -1.173585        -0.178825         2.031102
 H        -1.787402        -1.838100         1.811197
 H         0.410329        -3.043233         0.769275
 H        -1.078256        -1.157557        -1.826953
 H        -1.843300        -3.329844        -1.394733
