19
Iteration:   720charge 0 multiplicity 1
 C         1.479248         0.649888        -0.071615
 C        -0.002750         0.280507         0.043282
 C        -1.077344         0.932467        -0.257512
 C        -2.124660        -0.158607        -0.112657
 C        -1.654052        -0.968169         1.211128
 C        -0.396425        -1.160199         0.379193
 O         0.514089        -2.264539         0.695826
 C        -1.363324        -1.401100        -0.861982
 O        -2.025648        -2.630396        -0.681546
 H         1.998657         0.198537         0.800600
 H         1.816647         0.238188        -1.073028
 H         1.445686         1.764336        -0.145457
 H        -1.251551         2.021212        -0.414899
 H        -3.190937        -0.058282        -0.340223
 H        -1.663060        -0.330280         2.074832
 H        -2.328885        -1.846088         1.387661
 H         0.553204        -2.300038         1.635951
 H        -0.939441        -1.113967        -1.841251
 H        -1.543126        -3.219130        -0.159044
