19
Iteration:   479
 C         1.504122         0.673133        -0.037715
 C         0.018355         0.259908         0.157646
 C        -1.054427         0.893154        -0.234201
 C        -2.075747        -0.259096        -0.135260
 C        -1.686186        -0.996501         1.233777
 C        -0.352907        -1.189699         0.403682
 O         0.639452        -2.033919         0.808851
 C        -1.342863        -1.463131        -0.894672
 O        -2.189151        -2.645849        -0.786371
 H         1.721421         0.328728        -1.030542
 H         1.560059         1.758755         0.176618
 H         2.047524         0.031295         0.674167
 H        -1.243631         1.930137        -0.414848
 H        -3.132311        -0.073175        -0.441945
 H        -1.498861        -0.367222         2.177838
 H        -2.203561        -1.972713         1.328863
 H         0.344287        -2.917100         0.746647
 H        -1.042399        -1.204036        -1.901222
 H        -2.833227        -2.512950        -1.467910
