19
Iteration:  1622charge 0 multiplicity 1
 C         1.554839         0.482516        -0.238462
 C         0.110124         0.240821         0.133254
 C        -1.018017         0.887019        -0.334777
 C        -2.107694        -0.229448        -0.379769
 C        -1.830207        -0.797253         1.063611
 C        -0.510265        -1.171412         0.439501
 O         0.455816        -1.898956         1.258891
 C        -1.247278        -1.619880        -0.865321
 O        -2.093587        -2.708754        -0.744135
 H         2.159666        -0.379181        -0.012837
 H         1.695669         0.810727        -1.357289
 H         2.032504         1.263248         0.389335
 H        -0.992949         1.965539        -0.663107
 H        -3.171891        -0.011607        -0.521636
 H        -1.951109         0.007310         1.710946
 H        -2.304931        -1.699473         1.481673
 H         0.704584        -1.254644         1.891845
 H        -0.649375        -1.735995        -1.749495
 H        -1.703668        -3.613669        -1.089865
