19
Iteration:  3645
 C         1.594758         0.582371        -0.175577
 C         0.092153         0.196623        -0.034871
 C        -0.860828         0.700995        -0.786808
 C        -2.045374        -0.351144        -0.525737
 C        -1.926769        -0.484979         1.009260
 C        -0.572678        -1.044342         0.639361
 O         0.332032        -1.837192         1.353097
 C        -1.245623        -1.668981        -0.645458
 O        -2.025974        -2.816042        -0.468994
 H         2.367634         0.316747         0.561869
 H         2.126849         0.331093        -1.092976
 H         1.621521         1.674472        -0.196261
 H        -0.994065         1.347316        -1.687233
 H        -2.895528        -0.208347        -1.191455
 H        -2.024714         0.319259         1.660877
 H        -2.629823        -1.319943         1.341717
 H         0.170517        -2.774934         1.055891
 H        -0.537583        -1.719936        -1.496608
 H        -1.497252        -3.537429        -0.712985
