19
Iteration:  1012
 C         1.504954         0.738993         0.133590
 C         0.096397         0.252980         0.035257
 C        -1.011864         0.799657        -0.598753
 C        -2.153258        -0.232609        -0.223909
 C        -1.707212        -0.602324         1.203571
 C        -0.400242        -1.133838         0.430705
 O         0.327300        -2.250593         0.723045
 C        -1.365419        -1.523157        -0.787572
 O        -1.968124        -2.775252        -0.596346
 H         1.775705         0.462114         1.193551
 H         2.214970         0.217415        -0.472207
 H         1.365513         1.820113        -0.027012
 H        -1.046216         1.553551        -1.390547
 H        -3.219016        -0.065941        -0.359442
 H        -1.596352         0.233106         1.945053
 H        -2.281034        -1.433160         1.742228
 H         0.699054        -2.253233         1.600287
 H        -0.970480        -1.287365        -1.785209
 H        -1.216442        -3.302642        -0.674124
