19
Iteration:  4219
 C         1.558078         0.641801        -0.093056
 C         0.169184         0.082560        -0.282938
 C        -0.831268         0.504307        -1.065415
 C        -1.922117        -0.507222        -0.819259
 C        -1.949582        -0.264506         0.732723
 C        -0.453423        -0.983926         0.607103
 O         0.184539        -1.676383         1.659842
 C        -1.112289        -1.867869        -0.620772
 O        -2.142714        -2.823038        -0.082509
 H         1.914496         1.422714        -0.825857
 H         1.596742         1.256974         0.831481
 H         2.332504        -0.144134         0.008651
 H        -0.720823         1.091318        -1.951811
 H        -2.850528        -0.418800        -1.457520
 H        -1.923889         0.775497         0.976514
 H        -2.741113        -0.853197         1.346471
 H        -0.146342        -1.383187         2.451814
 H        -0.429284        -2.270316        -1.332125
 H        -2.169809        -3.612638        -0.633000
