19
Iteration:  2865
 C         1.492388         0.662169        -0.028751
 C         0.046750         0.248830         0.217966
 C        -1.080951         0.819990        -0.240927
 C        -2.108093        -0.354355        -0.208183
 C        -1.717593        -0.960405         1.198934
 C        -0.374464        -1.190244         0.463339
 O         0.556205        -2.076809         0.911737
 C        -1.285750        -1.467542        -0.885623
 O        -2.173951        -2.530428        -1.015847
 H         1.454919         1.090197        -1.063412
 H         2.034701         1.316318         0.784720
 H         2.134761        -0.309194        -0.228891
 H        -1.488834         1.911171        -0.260446
 H        -3.190495        -0.297077        -0.481810
 H        -1.582487        -0.298191         2.029891
 H        -2.176780        -1.928011         1.684966
 H         1.387067        -1.808240         1.179991
 H        -0.777119        -1.160866        -1.823173
 H        -2.542785        -2.767189        -0.244773
