19
Iteration:  1505
 C         1.535862         0.693064         0.170710
 C         0.078527         0.187090        -0.055042
 C        -0.965805         0.786425        -0.656588
 C        -2.082652        -0.312514        -0.434021
 C        -1.728153        -0.774281         1.030842
 C        -0.417953        -1.085318         0.437324
 O         0.513140        -2.026770         0.966643
 C        -1.303801        -1.542958        -0.806931
 O        -2.234476        -2.686290        -0.443510
 H         2.025028         1.082708        -0.806389
 H         1.528926         1.495713         0.870352
 H         2.266555        -0.079235         0.458290
 H        -1.084761         1.702861        -1.339898
 H        -3.088691        -0.174410        -0.823166
 H        -1.970895        -0.043920         1.867116
 H        -2.158700        -1.745524         1.388361
 H         0.334923        -2.047738         1.906968
 H        -1.018442        -1.641754        -1.922911
 H        -1.649476        -3.420587        -0.082268
