19
Iteration:  2315charge 0 multiplicity 1
 C         1.447644         0.521857        -0.103595
 C         0.041539         0.197281         0.037882
 C        -1.066267         0.883065        -0.138029
 C        -2.241215        -0.173316         0.015669
 C        -1.776068        -0.986711         1.262643
 C        -0.449569        -1.172412         0.423609
 O         0.632987        -2.093652         0.735495
 C        -1.343754        -1.351567        -0.854618
 O        -1.893754        -2.603314        -0.858965
 H         1.845517         1.008895         0.861764
 H         2.143586        -0.254074        -0.288160
 H         1.619841         1.278952        -0.896746
 H        -1.282648         1.842898        -0.724383
 H        -3.322406         0.197420        -0.104378
 H        -1.658396        -0.442989         2.197488
 H        -2.300463        -1.944255         1.308663
 H         0.278293        -2.846246         1.315146
 H        -0.896123        -0.973428        -1.799238
 H        -2.551199        -2.597605        -1.496805
