19
Iteration:  2052
 C         1.480844         0.535251        -0.062546
 C         0.011088         0.241314         0.042882
 C        -1.144870         0.959548        -0.294249
 C        -2.088673        -0.217727        -0.214052
 C        -1.711052        -0.883752         1.207794
 C        -0.440893        -1.153356         0.419758
 O         0.546812        -2.110982         0.792562
 C        -1.323757        -1.379021        -0.839078
 O        -2.004322        -2.670467        -0.644849
 H         1.686156         1.536871         0.436744
 H         1.884548        -0.271478         0.504340
 H         1.815240         0.555119        -1.102466
 H        -1.136625         2.083965        -0.586276
 H        -3.148499         0.014177        -0.327353
 H        -1.710386        -0.222453         2.054088
 H        -2.292438        -1.772658         1.420832
 H         0.024924        -2.796475         1.306408
 H        -0.720261        -1.387025        -1.783519
 H        -1.433908        -3.322708        -1.289553
