19
Iteration:  3197
 C         1.602678         0.657808         0.002048
 C         0.081407         0.215658         0.019315
 C        -1.009504         0.828325        -0.519227
 C        -2.127791        -0.306807        -0.279346
 C        -1.896370        -0.826047         1.204163
 C        -0.439768        -1.132704         0.480998
 O         0.568058        -1.936985         0.931227
 C        -1.327385        -1.505374        -0.766200
 O        -2.062919        -2.730694        -0.643814
 H         1.926099         1.357870         0.870433
 H         2.238849        -0.252876         0.115439
 H         1.826089         1.074835        -1.007503
 H        -1.167151         1.760766        -0.948574
 H        -3.150264         0.016208        -0.562667
 H        -1.990318        -0.138941         2.115398
 H        -2.558807        -1.649322         1.276993
 H         0.250490        -2.807433         1.379488
 H        -0.930656        -1.598966        -1.855379
 H        -2.081194        -3.108311        -1.552763
