19
Iteration:   913
 C         1.547244         0.628070        -0.159275
 C         0.104765         0.137163         0.010797
 C        -1.062644         0.815297        -0.370837
 C        -2.164708        -0.219368        -0.159126
 C        -1.801948        -0.814251         1.240324
 C        -0.483618        -1.201609         0.502140
 O         0.644425        -1.976946         1.112745
 C        -1.390237        -1.487364        -0.824687
 O        -2.083774        -2.676411        -0.861497
 H         1.476733         1.665307        -0.608555
 H         1.909179         0.653397         0.853731
 H         2.162662         0.047460        -0.871551
 H        -1.184975         1.789473        -0.907161
 H        -3.132798         0.144128        -0.550144
 H        -1.659755        -0.074885         2.117317
 H        -2.458947        -1.622515         1.580531
 H         0.462107        -2.883797         0.907296
 H        -0.827112        -1.241480        -1.736387
 H        -1.663443        -3.181657        -1.542985
