19
Iteration:   319charge 0 multiplicity 1
 C         1.377485         0.703776         0.177222
 C         0.048555         0.208623        -0.150784
 C        -1.144117         0.854240        -0.188968
 C        -2.098015        -0.241236         0.068081
 C        -1.545019        -0.844633         1.391470
 C        -0.330169        -1.191507         0.366549
 O         0.519295        -2.287411         0.518073
 C        -1.356172        -1.426021        -0.837579
 O        -2.187005        -2.586091        -0.930954
 H         1.425663         1.345316         1.127853
 H         2.242867         0.059831         0.396605
 H         1.925406         1.340461        -0.508423
 H        -1.246543         1.810077        -0.421279
 H        -3.153195        -0.012712        -0.162780
 H        -1.160290        -0.103662         2.064951
 H        -2.215209        -1.598621         1.779869
 H         1.181730        -2.021405         1.182177
 H        -1.041646        -1.119952        -1.860223
 H        -1.677528        -3.355895        -0.805333
