19
Iteration:  3771charge 0 multiplicity 1
 C         1.552548         0.685476        -0.018138
 C         0.150030         0.167408        -0.176789
 C        -0.857629         0.563852        -0.928921
 C        -2.065427        -0.398657        -0.651042
 C        -1.893297        -0.483621         0.968032
 C        -0.467806        -1.069508         0.498826
 O         0.235381        -1.814639         1.487154
 C        -1.239571        -1.703493        -0.734648
 O        -1.988767        -2.791950        -0.330618
 H         1.741208         1.769243        -0.193454
 H         1.959461         0.541289         1.023547
 H         2.255209         0.162362        -0.664014
 H        -0.934362         1.313500        -1.717895
 H        -3.012465        -0.306327        -1.146246
 H        -1.818406         0.538904         1.512711
 H        -2.359278        -1.289609         1.533817
 H         0.393727        -2.637243         1.073950
 H        -0.652583        -1.922852        -1.585643
 H        -2.627874        -2.466566         0.311937
