19
Iteration:  1352charge 0 multiplicity 1
 C         1.594725         0.554998        -0.084157
 C         0.097303         0.207944        -0.068765
 C        -1.082221         0.761561        -0.592034
 C        -2.143824        -0.211889        -0.330570
 C        -1.796351        -0.692777         1.213906
 C        -0.502661        -1.107469         0.495820
 O         0.368723        -1.897521         1.210424
 C        -1.345197        -1.527852        -0.809242
 O        -1.826198        -2.829740        -0.718163
 H         1.893935         1.688448        -0.037170
 H         2.115780        -0.026886         0.710917
 H         2.165045         0.137234        -0.988485
 H        -1.271973         1.622635        -1.159262
 H        -3.148621        -0.012377        -0.705262
 H        -1.588022         0.207558         1.789639
 H        -2.333831        -1.647034         1.556043
 H         0.042236        -2.862199         1.159718
 H        -0.750581        -1.413683        -1.733224
 H        -2.621527        -2.733497        -0.238754
