19
Iteration:   900charge 0 multiplicity 1
 C         1.475608         0.606388        -0.142429
 C         0.081070         0.169570        -0.003432
 C        -1.045106         0.810968        -0.419254
 C        -2.153709        -0.198314        -0.127153
 C        -1.720630        -0.755270         1.260087
 C        -0.437566        -1.174656         0.477162
 O         0.475738        -2.007824         1.068963
 C        -1.398066        -1.428511        -0.796846
 O        -1.950176        -2.761494        -0.856471
 H         1.528771         1.392802        -0.837070
 H         2.107796         1.073229         0.718822
 H         2.042131        -0.283959        -0.443542
 H        -1.099261         1.864581        -0.496059
 H        -3.249129        -0.017504        -0.186852
 H        -1.508637         0.011123         2.120683
 H        -2.279614        -1.655929         1.559031
 H         0.281090        -2.983866         0.887786
 H        -1.025949        -1.160613        -1.787492
 H        -1.785100        -3.156145        -1.782894
