19
Iteration:  4524charge 0 multiplicity 1
 C         1.589572         0.572939        -0.029247
 C         0.195970         0.126615        -0.315070
 C        -0.684380         0.330843        -1.362598
 C        -1.943616        -0.523233        -0.941788
 C        -1.922350        -0.161083         0.612602
 C        -0.653411        -0.906381         0.565868
 O        -0.069509        -1.525269         1.741196
 C        -1.193462        -1.915210        -0.479183
 O        -1.958264        -2.915310         0.085702
 H         1.822722         0.540101         1.045142
 H         2.267169        -0.212447        -0.510259
 H         1.910583         1.531339        -0.528427
 H        -0.688391         1.254516        -1.893922
 H        -2.775227        -0.254694        -1.534358
 H        -1.952678         0.815725         1.095874
 H        -2.716947        -0.731627         1.081948
 H         0.834828        -1.654155         1.692423
 H        -0.362497        -2.404476        -1.075464
 H        -1.535636        -2.992982         0.939631
