19
Iteration:  3270
 C         1.616286         0.709267         0.077816
 C         0.119457         0.183793        -0.098412
 C        -1.053843         0.764178        -0.569952
 C        -2.103145        -0.289891        -0.238980
 C        -1.797849        -0.659195         1.215248
 C        -0.432165        -1.060180         0.502356
 O         0.536144        -2.071079         0.946294
 C        -1.417817        -1.475910        -0.793389
 O        -2.087740        -2.788291        -0.676537
 H         2.188788        -0.055868         0.568976
 H         1.954604         1.146711        -0.872390
 H         1.448296         1.541646         0.725229
 H        -1.203335         1.574311        -1.243135
 H        -3.159795        -0.344166        -0.658102
 H        -1.746097         0.323877         1.815225
 H        -2.489454        -1.460998         1.543067
 H         0.108349        -2.934816         1.411584
 H        -0.948015        -1.352887        -1.719243
 H        -1.457520        -3.615419        -0.899290
