19
Iteration:  1630
 C         1.567352         0.487645        -0.196564
 C         0.076179         0.228299         0.077505
 C        -1.020694         0.814766        -0.347962
 C        -2.083598        -0.236228        -0.366773
 C        -1.821341        -0.795819         1.096319
 C        -0.430457        -1.159927         0.472695
 O         0.450369        -1.892529         1.256637
 C        -1.237029        -1.558743        -0.814976
 O        -2.151802        -2.715189        -0.773466
 H         2.110477        -0.380058         0.014929
 H         1.769159         0.570617        -1.316673
 H         1.871437         1.444632         0.281587
 H        -1.161042         1.840251        -0.830291
 H        -3.108477        -0.178300        -0.777345
 H        -1.953740         0.054441         1.775874
 H        -2.383877        -1.729620         1.335278
 H         0.857683        -1.278979         1.817240
 H        -0.775946        -1.400166        -1.809633
 H        -1.575271        -3.443041        -1.127972
