19
Iteration:  4042
 C         1.566991         0.584941        -0.027300
 C         0.229636         0.018140        -0.316775
 C        -0.739011         0.379518        -1.160916
 C        -2.006281        -0.383027        -0.703890
 C        -1.929401        -0.328976         0.845443
 C        -0.552641        -0.987897         0.543914
 O         0.190034        -1.597471         1.714182
 C        -1.366348        -1.708306        -0.556102
 O        -2.023312        -2.870869        -0.208748
 H         1.697667         0.863991         1.027602
 H         2.469904         0.032274        -0.317530
 H         1.653298         1.529582        -0.691902
 H        -0.796522         1.310598        -1.822319
 H        -2.903126        -0.150501        -1.217228
 H        -1.991504         0.631257         1.358796
 H        -2.727296        -0.945147         1.182552
 H         0.803286        -2.219352         1.354872
 H        -0.888492        -1.844087        -1.571299
 H        -1.391575        -3.471306        -0.725569
