19
Iteration:  3351charge 0 multiplicity 1
 C         1.435392         0.575018        -0.082966
 C         0.047643         0.196611        -0.025506
 C        -0.975805         0.825612        -0.573634
 C        -2.027052        -0.239036        -0.309583
 C        -1.830409        -0.645506         1.212610
 C        -0.477632        -1.091721         0.514132
 O         0.442468        -1.952187         1.147116
 C        -1.325753        -1.555799        -0.768234
 O        -1.886752        -2.849962        -0.706936
 H         1.777771         0.986329        -1.065176
 H         1.761102         1.389237         0.585930
 H         2.129956        -0.276397         0.113133
 H        -0.986643         1.678254        -1.373701
 H        -3.054655        -0.081077        -0.588341
 H        -1.722275         0.204993         1.899211
 H        -2.514316        -1.489007         1.527645
 H         0.230002        -2.874291         0.772134
 H        -0.720798        -1.514872        -1.746804
 H        -2.900332        -2.835407        -0.633576
