19
Iteration:  1659
 C         1.545090         0.594862        -0.098349
 C         0.087817         0.170123        -0.014369
 C        -1.040810         0.712707        -0.705223
 C        -2.170560        -0.209059        -0.211393
 C        -1.783235        -0.745626         1.254279
 C        -0.419652        -1.127064         0.599024
 O         0.452955        -2.065386         1.162610
 C        -1.247243        -1.494277        -0.722911
 O        -2.123525        -2.659178        -0.871304
 H         2.012244         0.070264         0.909100
 H         2.055465         0.317391        -0.974413
 H         1.671721         1.688855         0.045028
 H        -1.053475         1.504788        -1.452263
 H        -3.233781        -0.109160        -0.552045
 H        -1.991468         0.130791         2.024723
 H        -2.413346        -1.613589         1.474454
 H         1.120793        -1.442307         1.558081
 H        -0.662904        -1.205446        -1.655155
 H        -1.403296        -3.436949        -1.123547
