19
Iteration:  3274charge 0 multiplicity 1
 C         1.572840         0.681303         0.055186
 C         0.124038         0.186214        -0.071410
 C        -1.014586         0.797357        -0.568299
 C        -2.113849        -0.279229        -0.246939
 C        -1.815863        -0.642101         1.219657
 C        -0.441062        -1.086895         0.497975
 O         0.529816        -2.052537         0.927594
 C        -1.385201        -1.503305        -0.773476
 O        -2.079432        -2.827877        -0.662917
 H         2.279124        -0.065682         0.514708
 H         1.868906         1.219465        -0.840105
 H         1.506010         1.458256         0.856376
 H        -1.252845         1.697881        -1.123703
 H        -3.109623        -0.156116        -0.688455
 H        -1.737242         0.302204         1.805054
 H        -2.524086        -1.411839         1.452662
 H         0.209042        -2.748233         1.399772
 H        -0.967797        -1.393876        -1.868777
 H        -1.552192        -3.522558        -0.969526
