19
Iteration:  1332
 C         1.500179         0.554990        -0.004991
 C         0.088443         0.232335        -0.179658
 C        -1.041340         0.838031        -0.616817
 C        -2.140796        -0.301012        -0.248802
 C        -1.732925        -0.583967         1.166605
 C        -0.410958        -1.088470         0.481494
 O         0.373321        -2.004657         1.153467
 C        -1.330355        -1.536454        -0.789749
 O        -1.848978        -2.860505        -0.667817
 H         1.611529         1.688736        -0.171672
 H         1.772074         0.334860         0.994144
 H         2.252785         0.045858        -0.686442
 H        -1.041301         1.755085        -1.120085
 H        -3.181554        -0.056476        -0.441638
 H        -1.551349         0.216864         1.939722
 H        -2.254015        -1.511584         1.475030
 H        -0.405096        -2.539888         1.499979
 H        -1.009432        -1.447742        -1.817494
 H        -2.719000        -2.896817        -1.011342
