19
Iteration:  3107
 C         1.464299         0.673576        -0.051316
 C         0.083873         0.246842         0.051875
 C        -1.041980         0.833970        -0.472785
 C        -2.155311        -0.190159        -0.300411
 C        -1.804175        -0.828135         1.227428
 C        -0.439977        -1.201164         0.493445
 O         0.480414        -2.190580         0.928670
 C        -1.332521        -1.391525        -0.801451
 O        -1.871488        -2.693976        -0.629470
 H         1.611197         1.110178        -1.078577
 H         1.622168         1.493736         0.728706
 H         2.300024        -0.013084         0.127713
 H        -0.956927         1.825336        -1.049855
 H        -3.163230         0.069492        -0.651753
 H        -1.663890        -0.149891         2.061937
 H        -2.523844        -1.654322         1.415322
 H        -0.033510        -2.976262         1.285586
 H        -0.888197        -1.131745        -1.877746
 H        -2.288554        -3.009754        -1.377553
