19
Iteration:  2180charge 0 multiplicity 1
 C         1.496382         0.620515         0.118214
 C         0.112422         0.206583        -0.007835
 C        -1.055772         0.885706        -0.257399
 C        -2.145470        -0.181127        -0.173930
 C        -1.762218        -0.940816         1.228970
 C        -0.385689        -1.198195         0.331228
 O         0.567704        -2.098119         0.648158
 C        -1.442990        -1.395052        -0.835298
 O        -1.940341        -2.651458        -0.587311
 H         2.136245         0.311192        -0.712798
 H         1.476399         1.763385         0.108507
 H         1.803683         0.184577         1.072333
 H        -1.227098         1.852725        -0.825240
 H        -3.107019         0.046573        -0.579888
 H        -1.831096        -0.112709         2.019622
 H        -2.554809        -1.742861         1.454937
 H         0.091925        -2.855910         0.946699
 H        -1.138818        -1.280705        -1.881605
 H        -2.432750        -3.007922        -1.299719
