19
Iteration:  4928
 C         1.614832         0.504008        -0.095708
 C         0.208177         0.020748        -0.364315
 C        -0.555042        -0.027356        -1.429599
 C        -1.845645        -0.624369        -1.003479
 C        -2.007832        -0.116706         0.463213
 C        -0.543036        -0.734648         0.686523
 O        -0.128688        -1.145216         1.871137
 C        -1.152303        -1.940211        -0.374706
 O        -1.985787        -3.010639         0.139089
 H         1.649977         1.560650        -0.149914
 H         1.957921         0.419107         0.965564
 H         2.437338         0.106561        -0.698266
 H        -0.334958         0.215497        -2.416099
 H        -2.739483        -0.685344        -1.691419
 H        -2.179152         0.991795         0.738833
 H        -2.729163        -0.544035         1.030323
 H        -0.340504        -0.342312         2.510572
 H        -0.527570        -2.437738        -1.112665
 H        -2.956367        -2.633292         0.235331
