19
Iteration:  4765
 C         1.566601         0.559371        -0.106011
 C         0.280954        -0.030504        -0.396217
 C        -0.591028         0.129183        -1.345602
 C        -1.792480        -0.679914        -0.951332
 C        -2.009693        -0.285487         0.549155
 C        -0.526105        -0.911310         0.643212
 O        -0.061745        -1.154376         1.941484
 C        -1.119628        -1.952521        -0.412040
 O        -2.213021        -2.767227        -0.026872
 H         2.125157         0.079788         0.722960
 H         2.007050         0.259036        -1.092626
 H         1.650819         1.654321         0.104018
 H        -0.670453         0.930507        -2.168502
 H        -2.748172        -0.736579        -1.541813
 H        -2.078316         0.932493         0.720993
 H        -2.752619        -0.786438         1.158465
 H         0.832459        -0.918523         1.943143
 H        -0.420653        -2.495416        -1.068189
 H        -2.229030        -2.976092         0.969015
