19
Iteration:  2991charge 0 multiplicity 1
 C         1.550386         0.762843         0.064681
 C         0.082689         0.257198         0.109723
 C        -1.048969         0.813218        -0.299414
 C        -2.142711        -0.227757        -0.263086
 C        -1.769848        -0.874452         1.182393
 C        -0.433204        -1.220016         0.407042
 O         0.512615        -2.179135         0.802665
 C        -1.365692        -1.490522        -0.895635
 O        -2.070367        -2.664792        -0.712345
 H         2.196747         0.186250         0.783975
 H         1.869469         0.548298        -0.942972
 H         1.604577         1.826548         0.249885
 H        -1.129150         1.831980        -0.805559
 H        -3.177150         0.102836        -0.603748
 H        -1.493436        -0.015911         1.928301
 H        -2.395380        -1.638225         1.615587
 H         0.694072        -1.867421         1.726031
 H        -1.079081        -1.232298        -1.898041
 H        -1.602729        -3.358903        -1.047742
