19
Iteration:   604
 C         1.553013         0.800434        -0.025317
 C         0.133304         0.269252         0.131444
 C        -1.079266         0.888981        -0.231205
 C        -2.047963        -0.234410        -0.172395
 C        -1.755095        -0.949356         1.171297
 C        -0.399170        -1.265095         0.471493
 O         0.757313        -2.121605         0.823576
 C        -1.434470        -1.524286        -0.909385
 O        -2.329652        -2.616496        -0.794714
 H         1.595521         1.849266         0.433121
 H         2.226484         0.122093         0.536564
 H         1.738021         0.738510        -1.101567
 H        -1.150219         1.828426        -0.679740
 H        -3.065412        -0.140926        -0.463155
 H        -1.691917        -0.373011         2.109414
 H        -2.499097        -1.801043         1.373949
 H         0.653940        -2.468615         1.683068
 H        -1.146258        -1.411807        -1.990251
 H        -2.105826        -3.222588        -1.471932
