19
Iteration:  3790charge 0 multiplicity 1
 C         1.532915         0.668741        -0.071726
 C         0.119273         0.176310        -0.227121
 C        -0.878410         0.635940        -0.938111
 C        -1.947007        -0.271574        -0.588026
 C        -1.853724        -0.427471         0.906088
 C        -0.470004        -1.038446         0.586306
 O         0.158265        -1.850670         1.536131
 C        -1.250243        -1.752359        -0.670602
 O        -1.995725        -2.934389        -0.396809
 H         1.452566         1.708190         0.190463
 H         2.237636         0.204891         0.566628
 H         2.099053         0.741343        -1.060777
 H        -0.741127         1.368849        -1.686064
 H        -2.976008        -0.126741        -1.036753
 H        -1.657977         0.507484         1.540878
 H        -2.643176        -1.063468         1.264207
 H         0.497601        -2.608624         1.158328
 H        -0.630867        -1.918862        -1.549620
 H        -2.239761        -3.014364         0.564122
