19
Iteration:  1552
 C         1.460678         0.597745         0.028601
 C         0.103577         0.220314        -0.079807
 C        -0.986163         0.784159        -0.645186
 C        -2.138022        -0.266557        -0.286146
 C        -1.719724        -0.494475         1.186418
 C        -0.454554        -1.075411         0.462131
 O         0.389782        -2.076939         1.029142
 C        -1.420835        -1.574804        -0.712459
 O        -1.943132        -2.828961        -0.732199
 H         2.066874         0.331836        -0.856496
 H         1.579563         1.669319         0.213746
 H         1.972831        -0.043070         0.859829
 H        -0.997914         1.599602        -1.289216
 H        -3.177992         0.011893        -0.537725
 H        -1.461258         0.341116         1.916921
 H        -2.394164        -1.152067         1.704359
 H         0.073502        -2.433368         1.867029
 H        -0.744325        -1.534042        -1.607560
 H        -1.169068        -3.455548        -0.348719
