19
Iteration:  4169
 C         1.562081         0.409910        -0.066633
 C         0.163709         0.022896        -0.320114
 C        -0.827264         0.549188        -1.115176
 C        -2.052215        -0.401266        -0.750804
 C        -1.961634        -0.252895         0.798686
 C        -0.558911        -0.906533         0.621378
 O         0.159684        -1.504827         1.700155
 C        -1.236447        -1.774054        -0.551316
 O        -1.917357        -2.920608        -0.170872
 H         2.395414         0.205021        -0.779078
 H         1.652443         1.499333         0.073843
 H         1.898281         0.011357         0.896643
 H        -0.697129         0.840541        -2.194238
 H        -2.941591        -0.383095        -1.353881
 H        -1.853077         0.837679         1.169302
 H        -2.566992        -0.872415         1.381404
 H         0.515881        -2.408756         1.357054
 H        -0.513886        -1.955559        -1.441764
 H        -1.809840        -3.585953        -0.810359
