19
Iteration:   337
 C         1.503381         0.731093         0.130373
 C         0.036669         0.254755         0.096335
 C        -1.070107         0.882895        -0.234532
 C        -2.167880        -0.219972        -0.021686
 C        -1.593520        -0.847842         1.320475
 C        -0.422183        -1.239219         0.346558
 O         0.465528        -2.299523         0.459795
 C        -1.459712        -1.370466        -0.772402
 O        -2.051508        -2.646086        -0.873907
 H         1.752600         1.019747         1.113472
 H         2.261267        -0.108896        -0.143878
 H         1.608814         1.504857        -0.710926
 H        -1.349178         1.968661        -0.389406
 H        -3.234118        -0.053723        -0.107550
 H        -1.347831        -0.111065         2.184670
 H        -2.038430        -1.838266         1.597305
 H         1.267286        -2.085374         0.935640
 H        -0.928010        -1.086433        -1.717485
 H        -1.508249        -3.246759        -0.415152
