19
Iteration:  3251
 C         1.476500         0.743716         0.056382
 C         0.109809         0.239334        -0.074160
 C        -1.028050         0.719059        -0.658354
 C        -2.185119        -0.303387        -0.217747
 C        -1.663139        -0.733014         1.229947
 C        -0.388692        -1.153776         0.430932
 O         0.471189        -2.058756         1.028315
 C        -1.303142        -1.521368        -0.754114
 O        -2.112595        -2.669859        -0.717127
 H         1.941337         0.201110         0.932433
 H         2.101472         0.662320        -0.835916
 H         1.654818         1.760689         0.404607
 H        -1.275321         1.579419        -1.168741
 H        -3.135569         0.176290        -0.511294
 H        -1.481161         0.103375         1.997216
 H        -2.200782        -1.610532         1.485747
 H        -0.019557        -2.959414         1.288595
 H        -0.929932        -1.447754        -1.863888
 H        -1.573478        -3.555873        -0.739729
