19
Iteration:   207charge 0 multiplicity 1
 C         1.577597         0.599651        -0.082108
 C         0.057022         0.309897         0.071640
 C        -1.210189         0.904099        -0.205863
 C        -2.168167        -0.165791         0.198167
 C        -1.631911        -0.945276         1.389952
 C        -0.455534        -1.164639         0.427169
 O         0.382884        -2.206108         0.645365
 C        -1.478652        -1.323631        -0.748622
 O        -1.740080        -2.711472        -1.014083
 H         1.692430         1.382334        -0.828339
 H         2.088251         0.893610         0.949141
 H         2.144773        -0.376996        -0.491846
 H        -1.430242         1.916122        -0.594639
 H        -3.202609         0.106308         0.111089
 H        -1.479935        -0.482431         2.417771
 H        -2.244872        -1.881887         1.452885
 H         0.428728        -2.778613        -0.124278
 H        -1.202734        -0.786260        -1.694741
 H        -2.314875        -2.749244        -1.777932
