19
Iteration:  3288
 C         1.472676         0.656771         0.069131
 C         0.075513         0.203705        -0.017792
 C        -0.978047         0.776607        -0.534047
 C        -2.110063        -0.165734        -0.337973
 C        -1.802103        -0.637416         1.153822
 C        -0.483086        -1.175832         0.417300
 O         0.542333        -1.974381         0.917758
 C        -1.357128        -1.619119        -0.733645
 O        -2.044294        -2.806615        -0.602643
 H         2.065880        -0.273498        -0.091193
 H         1.734059         1.270220        -0.838588
 H         1.757385         1.257414         1.008621
 H        -0.931357         1.899418        -0.874279
 H        -3.118476         0.163277        -0.513342
 H        -1.676415         0.005427         1.956166
 H        -2.340014        -1.501555         1.657129
 H         0.031958        -2.655033         1.537510
 H        -0.742484        -1.567761        -1.693197
 H        -1.524152        -3.433771        -1.268709
