19
Iteration:  2300charge 0 multiplicity 1
 C         1.495601         0.623555        -0.088517
 C         0.085007         0.213689         0.163735
 C        -1.106581         0.866210        -0.160172
 C        -2.062047        -0.222319        -0.103753
 C        -1.762650        -0.959044         1.234382
 C        -0.432830        -1.245540         0.468765
 O         0.583802        -2.047851         0.659461
 C        -1.423748        -1.325781        -0.806590
 O        -1.971234        -2.671681        -0.845894
 H         2.068510         0.878813         0.842441
 H         2.011992        -0.262810        -0.627507
 H         1.475236         1.502498        -0.747503
 H        -1.135309         1.884818        -0.277511
 H        -3.066427        -0.147200        -0.450683
 H        -1.831478        -0.385285         2.212133
 H        -2.406992        -1.923531         1.341505
 H         0.395747        -2.616934         1.496282
 H        -0.920942        -1.072670        -1.751120
 H        -2.853883        -2.618060        -1.431315
