19
Iteration:   258
 C         1.525574         0.756814         0.080350
 C         0.066744         0.217116         0.069753
 C        -1.094607         0.848709        -0.106974
 C        -2.158478        -0.243835        -0.079597
 C        -1.715031        -1.059714         1.207079
 C        -0.304350        -1.226145         0.316581
 O         0.742726        -2.072400         0.616521
 C        -1.386103        -1.429756        -0.835627
 O        -2.283716        -2.551064        -0.752102
 H         1.492093         1.836703         0.196400
 H         1.983966         0.209174         0.851853
 H         1.967739         0.490555        -0.866922
 H        -1.088033         1.893474        -0.186459
 H        -3.183550         0.039125        -0.333908
 H        -1.583441        -0.491042         2.133154
 H        -2.233414        -2.019502         1.440286
 H         0.460108        -2.964715         0.657991
 H        -0.949124        -1.301226        -1.834796
 H        -2.372535        -2.934221        -1.587382
