19
Iteration:  1553charge 0 multiplicity 1
 C         1.463402         0.594734         0.016263
 C         0.100739         0.218243        -0.067702
 C        -0.986508         0.778651        -0.652478
 C        -2.132005        -0.271927        -0.278334
 C        -1.721644        -0.493217         1.196691
 C        -0.464602        -1.079748         0.465454
 O         0.387779        -2.075282         1.021292
 C        -1.410521        -1.570363        -0.711037
 O        -1.940420        -2.823570        -0.735468
 H         2.053542         0.324210        -0.849565
 H         1.620352         1.698958         0.208193
 H         1.941391        -0.022451         0.878553
 H        -1.017629         1.573208        -1.340787
 H        -3.162841         0.031334        -0.532336
 H        -1.486394         0.329099         1.898227
 H        -2.394646        -1.169862         1.706386
 H         0.025077        -2.413693         1.894330
 H        -0.725241        -1.518664        -1.576655
 H        -1.163343        -3.434377        -0.370033
