19
Iteration:  4372charge 0 multiplicity 1
 C         1.555672         0.440109        -0.176836
 C         0.159521         0.083104        -0.283196
 C        -0.765574         0.379647        -1.187884
 C        -1.972717        -0.436489        -0.843171
 C        -1.990765        -0.121132         0.749454
 C        -0.620059        -0.889713         0.677141
 O        -0.000877        -1.500457         1.840005
 C        -1.147732        -1.798577        -0.527749
 O        -1.811340        -3.021967        -0.219987
 H         2.109252        -0.498737        -0.221129
 H         1.776939         1.071662        -1.051242
 H         1.800622         0.968765         0.764538
 H        -0.764395         1.192764        -2.010021
 H        -2.888216        -0.413343        -1.443895
 H        -1.780946         0.961450         0.968278
 H        -2.795329        -0.548401         1.389552
 H         0.552257        -2.154737         1.554557
 H        -0.384982        -2.121313        -1.223862
 H        -2.217396        -2.846052         0.613528
