19
Iteration:  3733charge 0 multiplicity 1
 C         1.535555         0.590951         0.094508
 C         0.131541         0.118603        -0.198237
 C        -0.925163         0.703564        -0.896210
 C        -2.067351        -0.293938        -0.580828
 C        -1.948769        -0.358207         0.958107
 C        -0.507629        -1.047495         0.519801
 O         0.479108        -1.763882         1.301756
 C        -1.284402        -1.741860        -0.676068
 O        -1.977208        -2.962857        -0.356799
 H         2.037560         0.775684        -0.862066
 H         1.441928         1.430393         0.774971
 H         1.891039        -0.341369         0.599053
 H        -0.596584         1.124623        -1.863604
 H        -3.023726        -0.097277        -1.159186
 H        -1.806758         0.539211         1.515985
 H        -2.634469        -1.046034         1.529409
 H         0.026209        -2.504372         1.873934
 H        -0.627693        -1.970165        -1.606579
 H        -2.894922        -2.805079        -0.437605
