19
Iteration:  1403
 C         1.530227         0.548299        -0.162470
 C         0.088333         0.252324         0.022727
 C        -0.970367         0.786263        -0.531718
 C        -2.078167        -0.336039        -0.394840
 C        -1.914906        -0.681426         1.093728
 C        -0.484070        -1.092746         0.539314
 O         0.419121        -1.946230         1.247210
 C        -1.191515        -1.559554        -0.754706
 O        -2.061849        -2.708252        -0.671518
 H         1.672663         1.587019        -0.043469
 H         2.243836        -0.000389         0.536416
 H         1.803377         0.407915        -1.169214
 H        -1.202635         1.771569        -0.929508
 H        -3.104380        -0.398277        -0.809671
 H        -2.039770         0.194133         1.707415
 H        -2.603589        -1.545161         1.354926
 H         0.836196        -2.439100         0.465232
 H        -0.525985        -1.581432        -1.696707
 H        -1.516585        -3.388227        -0.231594
