19
Iteration:  1766charge 0 multiplicity 1
 C         1.463836         0.636506         0.184179
 C         0.147439         0.153492        -0.128736
 C        -1.006948         0.876976        -0.553973
 C        -2.140527        -0.231677        -0.241935
 C        -1.744108        -0.558807         1.195063
 C        -0.432025        -1.116544         0.442859
 O         0.584018        -2.066904         0.814859
 C        -1.368218        -1.556906        -0.777057
 O        -2.176099        -2.869333        -0.691531
 H         1.554417         1.712365         0.315407
 H         1.784760         0.330100         1.236770
 H         2.265344         0.339559        -0.489487
 H        -1.138590         1.932007        -0.927835
 H        -3.189935        -0.110884        -0.631726
 H        -1.397694         0.151204         1.974646
 H        -2.345779        -1.220138         1.747978
 H         0.162226        -2.490489         1.647969
 H        -0.854921        -1.427153        -1.732554
 H        -1.364651        -3.543160        -0.451305
