19
Iteration:  1893
 C         1.557945         0.471928        -0.063607
 C         0.103535         0.314101        -0.125445
 C        -1.134385         0.818765        -0.444350
 C        -2.181816        -0.240472        -0.116095
 C        -1.725555        -0.774186         1.263380
 C        -0.445521        -1.028261         0.464264
 O         0.346557        -2.090807         0.962488
 C        -1.345502        -1.336096        -0.770303
 O        -1.768815        -2.789617        -0.705463
 H         2.153240        -0.243286        -0.664266
 H         1.905609         1.459704        -0.470968
 H         1.954833         0.414051         0.979773
 H        -1.454987         1.648995        -1.069110
 H        -3.236098        -0.108232        -0.450746
 H        -1.642586        -0.015233         2.085672
 H        -2.296777        -1.739920         1.441185
 H        -0.334280        -2.821412         0.900280
 H        -0.785027        -1.103364        -1.719453
 H        -2.403042        -2.974787        -1.506699
