19
Iteration:  4368charge 0 multiplicity 1
 C         1.554487         0.448909        -0.199611
 C         0.145035         0.060616        -0.275608
 C        -0.776209         0.392301        -1.151691
 C        -1.986989        -0.367901        -0.854860
 C        -1.995412        -0.126125         0.731166
 C        -0.611541        -0.897392         0.674741
 O         0.003619        -1.495051         1.834557
 C        -1.123600        -1.822648        -0.514145
 O        -1.829051        -3.012638        -0.217048
 H         2.197350        -0.460936        -0.115209
 H         1.920548         0.991262        -1.137043
 H         1.674164         1.115684         0.728198
 H        -0.625364         0.952856        -2.062241
 H        -2.863238        -0.329016        -1.546933
 H        -1.952811         0.905024         0.968221
 H        -2.741495        -0.670434         1.437658
 H         0.624010        -2.319460         1.627666
 H        -0.274160        -2.090652        -1.279229
 H        -2.191587        -3.083280         0.732459
