19
Iteration:  1704charge 0 multiplicity 1
 C         1.539608         0.747808         0.090716
 C         0.180114         0.222942        -0.095960
 C        -1.015775         0.825258        -0.456651
 C        -2.093698        -0.188642        -0.330605
 C        -1.797309        -0.635640         1.090453
 C        -0.446332        -1.169977         0.351144
 O         0.373890        -2.197772         0.959278
 C        -1.328934        -1.547311        -0.757255
 O        -2.109897        -2.802132        -0.585762
 H         1.630155         1.327648         1.138005
 H         2.221132        -0.061621         0.067778
 H         1.790667         1.394698        -0.786988
 H        -1.175334         1.928649        -0.723349
 H        -3.108962        -0.073039        -0.744309
 H        -1.409475         0.022066         1.934886
 H        -2.401835        -1.518539         1.425282
 H         1.046316        -1.871588         1.634414
 H        -0.853238        -1.503394        -1.797828
 H        -1.388420        -3.573338        -0.705853
