19
Iteration:  4152
 C         1.594374         0.353972        -0.049738
 C         0.104060         0.148539        -0.273132
 C        -0.871328         0.463158        -1.130800
 C        -1.979757        -0.442694        -0.717711
 C        -1.878499        -0.146650         0.844328
 C        -0.594228        -0.956270         0.557641
 O         0.031745        -1.497464         1.636971
 C        -1.129648        -1.781667        -0.559939
 O        -1.876365        -2.952213        -0.172270
 H         2.022313        -0.396100        -0.718664
 H         1.856946         1.381181        -0.342656
 H         1.788216         0.019330         1.000939
 H        -1.102903         1.429457        -1.594778
 H        -2.980804        -0.514522        -1.191565
 H        -1.787718         0.881728         1.034630
 H        -2.724840        -0.640490         1.467445
 H         0.912027        -1.993327         1.305449
 H        -0.465065        -2.007053        -1.340267
 H        -1.913326        -3.481696        -0.947421
