19
Iteration:  4500charge 0 multiplicity 1
 C         1.539417         0.612650        -0.072156
 C         0.256183        -0.080187        -0.336032
 C        -0.640285         0.359417        -1.253301
 C        -1.926680        -0.502549        -0.800361
 C        -1.971627        -0.194084         0.655512
 C        -0.573482        -0.955760         0.605752
 O        -0.036479        -1.393107         1.777611
 C        -1.256840        -1.841059        -0.583414
 O        -1.959537        -2.945092        -0.035807
 H         1.322576         1.366340         0.714926
 H         2.504412         0.067989         0.254001
 H         1.777863         1.106012        -1.076850
 H        -0.350664         0.587449        -2.315411
 H        -2.773457        -0.281686        -1.464863
 H        -1.965400         0.785683         1.007127
 H        -2.805144        -0.700914         1.312025
 H         0.768037        -2.052816         1.775696
 H        -0.770407        -2.330504        -1.513464
 H        -1.865112        -2.779191         0.999027
