19
Iteration:  4331charge 0 multiplicity 1
 C         1.700500         0.502359        -0.155427
 C         0.198808         0.150111        -0.239007
 C        -0.747366         0.368012        -1.206267
 C        -1.992677        -0.452904        -0.846959
 C        -2.043178        -0.369776         0.842749
 C        -0.533854        -0.908721         0.586995
 O        -0.041896        -1.464421         1.781522
 C        -1.207508        -1.806166        -0.639190
 O        -1.959416        -2.929384        -0.147777
 H         1.951841         0.231488         0.903938
 H         2.311201         0.111288        -0.957621
 H         1.979699         1.547741        -0.133902
 H        -0.810127         1.276233        -1.846326
 H        -2.727253        -0.285141        -1.611488
 H        -2.195470         0.698875         1.288425
 H        -2.550524        -1.115292         1.365478
 H         0.903879        -1.851772         1.464409
 H        -0.571215        -2.125149        -1.437570
 H        -1.746077        -2.844013         0.860034
