19
Iteration:  4454charge 0 multiplicity 1
 C         1.579709         0.551251        -0.106329
 C         0.160368         0.126527        -0.304543
 C        -0.768898         0.373058        -1.210021
 C        -1.871444        -0.579065        -0.849394
 C        -1.915402        -0.189716         0.711019
 C        -0.582103        -0.894560         0.663992
 O         0.101455        -1.361083         1.826970
 C        -1.174143        -1.953721        -0.535467
 O        -2.051543        -2.984091        -0.146660
 H         1.733346         1.606018        -0.489078
 H         1.829019         0.707502         0.980639
 H         2.356304        -0.177105        -0.433147
 H        -0.589656         0.712028        -2.228756
 H        -2.882653        -0.718974        -1.336398
 H        -1.973614         0.901988         0.869416
 H        -2.728605        -0.598761         1.424077
 H         0.701165        -1.991690         1.385338
 H        -0.376217        -2.455334        -1.180354
 H        -2.972104        -2.527798        -0.149639
