19
Iteration:  1529
 C         1.552828         0.692033         0.108656
 C         0.126519         0.165397        -0.170437
 C        -0.995721         0.802374        -0.587484
 C        -2.079263        -0.197927        -0.321881
 C        -1.766170        -0.632578         1.114354
 C        -0.489204        -1.187089         0.313731
 O         0.482225        -1.995707         1.050643
 C        -1.385426        -1.569326        -0.853473
 O        -2.087882        -2.865886        -0.553461
 H         2.320517         0.821826        -0.715832
 H         1.518393         1.578659         0.698074
 H         2.043892        -0.137225         0.772769
 H        -1.276626         1.819278        -0.760226
 H        -3.065058         0.189512        -0.625318
 H        -1.645756         0.208072         1.919795
 H        -2.418632        -1.362073         1.560010
 H        -0.033068        -2.160104         1.922958
 H        -0.807365        -1.660142        -1.841296
 H        -1.471286        -3.258304        -0.015538
