19
Iteration:  1218charge 0 multiplicity 1
 C         1.563773         0.683012         0.087956
 C         0.095819         0.205329        -0.156401
 C        -0.973836         0.804682        -0.691487
 C        -2.098541        -0.242032        -0.230440
 C        -1.713495        -0.628751         1.208227
 C        -0.481781        -1.140242         0.470942
 O         0.457471        -2.007818         1.046261
 C        -1.456386        -1.561149        -0.702343
 O        -2.000645        -2.895765        -0.732246
 H         2.139648         0.837846        -0.812612
 H         1.315602         1.680870         0.706071
 H         2.102479        -0.106658         0.602937
 H        -1.163404         1.765909        -1.135731
 H        -3.084448         0.182238        -0.444875
 H        -1.684680         0.168523         1.951753
 H        -2.244659        -1.455834         1.796740
 H         0.884800        -2.758839         0.463008
 H        -0.956334        -1.300068        -1.647925
 H        -2.802047        -2.879522        -0.220234
