19
Iteration:  2386charge 0 multiplicity 1
 C         1.393505         0.744980        -0.034565
 C         0.085469         0.231360         0.107588
 C        -1.071787         0.908938        -0.284325
 C        -2.103278        -0.172081        -0.005027
 C        -1.679906        -0.968748         1.268146
 C        -0.410725        -1.201542         0.434292
 O         0.582566        -2.286522         0.730484
 C        -1.397375        -1.329777        -0.760818
 O        -2.062470        -2.620246        -0.836709
 H         1.499057         1.677406         0.448738
 H         2.157887         0.046982         0.436831
 H         1.671219         0.771896        -1.094216
 H        -1.178072         1.938833        -0.559170
 H        -3.115455         0.082456        -0.223877
 H        -1.699356        -0.340557         2.150405
 H        -2.189020        -1.928931         1.290309
 H         0.480856        -2.962915         0.008007
 H        -0.790675        -1.195573        -1.688977
 H        -1.908003        -3.004206        -1.642341
