19
Iteration:  3847charge 0 multiplicity 1
 C         1.513548         0.443615        -0.098486
 C         0.053208         0.174299        -0.206834
 C        -0.905709         0.624816        -1.046594
 C        -2.032830        -0.306388        -0.642988
 C        -1.911389        -0.429874         0.995785
 C        -0.471014        -1.013161         0.547960
 O         0.150527        -1.749174         1.579536
 C        -1.223147        -1.675501        -0.646814
 O        -1.892746        -2.873285        -0.415770
 H         1.935855        -0.195108         0.698352
 H         2.026560        -0.014151        -0.918445
 H         1.872723         1.460462         0.024303
 H        -0.615250         1.545154        -1.673519
 H        -2.937133        -0.297291        -1.179787
 H        -1.871290         0.517701         1.679384
 H        -2.593948        -1.164783         1.432800
 H         1.182859        -1.597505         1.513788
 H        -0.573550        -1.852984        -1.436943
 H        -1.798382        -3.118317         0.552879
