19
Iteration:    38charge 0 multiplicity 1
 C         1.462530         0.793357         0.236224
 C         0.123189         0.267275         0.205966
 C        -1.100838         0.958059         0.022433
 C        -2.087504        -0.199249        -0.045279
 C        -1.693767        -1.013006         1.185015
 C        -0.356395        -1.223356         0.194124
 O         0.538105        -2.318774         0.278634
 C        -1.468307        -1.336341        -0.920613
 O        -2.069352        -2.626750        -0.642304
 H         2.062111        -0.130996         0.728449
 H         1.811606         1.034359        -0.796358
 H         1.556401         1.727767         0.828348
 H        -1.173957         1.965097        -0.467245
 H        -3.127537         0.149735        -0.201378
 H        -1.392550        -0.518998         2.124505
 H        -2.335406        -1.891216         1.300356
 H         0.516434        -2.660338         1.142589
 H        -1.204237        -1.177984        -1.993889
 H        -1.720231        -3.197314        -1.271307
