19
Iteration:  4641
 C         1.607307         0.450756        -0.178381
 C         0.156492        -0.016313        -0.288702
 C        -0.582452         0.225523        -1.345123
 C        -1.869683        -0.530918        -0.899422
 C        -2.042923        -0.255290         0.567180
 C        -0.580217        -0.846881         0.723672
 O         0.005597        -1.176228         1.935521
 C        -1.159409        -1.879926        -0.447400
 O        -2.124147        -2.877908        -0.071467
 H         1.778270         0.935100        -1.127751
 H         1.560883         1.226618         0.646541
 H         2.429558        -0.224240         0.100596
 H        -0.215837         0.479876        -2.314913
 H        -2.771358        -0.650832        -1.477896
 H        -2.228268         0.687211         1.102660
 H        -2.951327        -0.856124         1.059110
 H         0.962301        -1.210448         1.776273
 H        -0.350277        -2.379857        -0.960970
 H        -1.646751        -3.751363        -0.048929
