19
Iteration:  3128charge 0 multiplicity 1
 C         1.482228         0.673346        -0.017371
 C         0.102987         0.246807         0.004431
 C        -1.047679         0.836178        -0.429335
 C        -2.126706        -0.104487        -0.134879
 C        -1.781216        -0.716287         1.179423
 C        -0.505362        -1.116516         0.428044
 O         0.380660        -2.101567         0.931873
 C        -1.325720        -1.520938        -0.804403
 O        -1.782940        -2.870972        -0.687927
 H         1.703111         1.418002        -0.784165
 H         1.958405         0.964265         0.953026
 H         2.136024        -0.161676        -0.307044
 H        -1.104457         1.767459        -1.110913
 H        -3.166053         0.186586        -0.296840
 H        -1.711845        -0.037374         2.011755
 H        -2.374870        -1.666041         1.344156
 H        -0.160421        -2.966730         0.861066
 H        -0.764328        -1.360035        -1.840206
 H        -2.612302        -3.027586        -1.312842
