19
Iteration:  4575charge 0 multiplicity 1
 C         1.573115         0.432516        -0.106847
 C         0.171175         0.033100        -0.299300
 C        -0.594444         0.263506        -1.350592
 C        -1.870353        -0.464129        -0.874066
 C        -2.055976        -0.222451         0.658868
 C        -0.669610        -0.891173         0.595252
 O        -0.000795        -1.363515         1.825324
 C        -1.171244        -1.831440        -0.494808
 O        -2.010706        -2.905185         0.011311
 H         2.202086        -0.448333         0.005191
 H         1.880774         1.013221        -1.004641
 H         1.783053         1.197125         0.674683
 H        -0.540861         1.112277        -2.055389
 H        -2.642977        -0.660384        -1.649096
 H        -2.128143         0.798129         0.950243
 H        -2.980194        -0.880317         1.027611
 H         0.863402        -0.963174         1.987083
 H        -0.481819        -2.234205        -1.248623
 H        -1.342228        -3.333776         0.542417
