19
Iteration:  4954charge 0 multiplicity 1
 C         1.635332         0.599900        -0.041349
 C         0.276080        -0.084947        -0.443130
 C        -0.519525         0.088960        -1.474623
 C        -1.810880        -0.671032        -1.029721
 C        -2.004851        -0.071581         0.425009
 C        -0.660431        -0.901446         0.654393
 O        -0.164442        -1.146493         1.894255
 C        -1.183321        -1.994609        -0.352844
 O        -2.031435        -2.972780         0.175994
 H         1.561654         1.562130         0.541174
 H         2.133004        -0.000392         0.691806
 H         2.361902         0.758936        -0.851403
 H        -0.447420         0.677850        -2.459876
 H        -2.687034        -0.731981        -1.666726
 H        -2.017627         1.032479         0.657872
 H        -2.978359        -0.471900         0.965295
 H         0.167844        -0.227929         2.176741
 H        -0.476004        -2.441531        -1.057067
 H        -2.245743        -2.702555         1.179910
