19
Iteration:  4753charge 0 multiplicity 1
 C         1.618879         0.554018        -0.075601
 C         0.185543         0.025911        -0.314470
 C        -0.633688         0.223326        -1.435438
 C        -1.830179        -0.657116        -0.956464
 C        -1.945033        -0.188864         0.502575
 C        -0.553377        -0.928125         0.621296
 O        -0.005541        -1.189419         1.969518
 C        -1.162639        -1.992655        -0.396365
 O        -2.232354        -2.866205        -0.004687
 H         2.049078         0.278940         0.889119
 H         2.412499         0.187841        -0.784188
 H         1.623708         1.637547        -0.265957
 H        -0.521395         0.793206        -2.444801
 H        -2.661215        -0.904495        -1.621846
 H        -1.925245         1.016551         0.678719
 H        -2.749481        -0.698504         1.044646
 H         0.978269        -1.138513         2.017502
 H        -0.441493        -2.510060        -1.010759
 H        -2.095175        -3.066754         0.872465
