19
Iteration:    87charge 0 multiplicity 1
 C         1.556677         0.685514         0.252100
 C         0.039084         0.264020        -0.008831
 C        -1.148481         0.844113        -0.176753
 C        -2.196999        -0.278608         0.115858
 C        -1.454259        -0.912228         1.347616
 C        -0.305814        -1.206016         0.326592
 O         0.719197        -2.133038         0.557221
 C        -1.477339        -1.425814        -0.867540
 O        -2.352417        -2.570071        -1.066914
 H         2.241344        -0.052534        -0.018700
 H         1.703194         1.779211        -0.041308
 H         1.605814         0.749188         1.438596
 H        -1.414468         1.760355        -0.627150
 H        -3.274067        -0.140107         0.089533
 H        -1.315056        -0.099645         2.100334
 H        -1.854097        -1.895540         1.750049
 H         0.296520        -2.982659         0.905909
 H        -1.089301        -0.960873        -1.799992
 H        -1.884859        -3.419269        -1.410071
