19
Iteration:  3648charge 0 multiplicity 1
 C         1.590570         0.596542        -0.157477
 C         0.119766         0.177574        -0.015793
 C        -0.864001         0.675934        -0.794676
 C        -2.028500        -0.357734        -0.518467
 C        -1.947173        -0.492042         1.007485
 C        -0.543569        -1.040628         0.613258
 O         0.318050        -1.821853         1.345224
 C        -1.238068        -1.649605        -0.664734
 O        -2.038948        -2.828610        -0.453131
 H         2.389334         0.205502         0.467120
 H         1.941931         0.348770        -1.151699
 H         1.608791         1.718979        -0.145516
 H        -1.015325         1.403506        -1.610785
 H        -2.909480        -0.147685        -1.222886
 H        -1.995849         0.418620         1.691488
 H        -2.600412        -1.330891         1.347513
 H         0.130368        -2.681864         1.097860
 H        -0.560730        -1.731414        -1.448691
 H        -1.489349        -3.574905        -0.782397
