19
Iteration:  1270charge 0 multiplicity 1
 C         1.515897         0.733048         0.133434
 C         0.082824         0.215577        -0.056857
 C        -1.005878         0.768893        -0.669935
 C        -2.077762        -0.282837        -0.400309
 C        -1.801727        -0.746395         1.115360
 C        -0.418360        -1.103721         0.408265
 O         0.595874        -2.001740         1.018910
 C        -1.273975        -1.634968        -0.761916
 O        -2.256203        -2.673103        -0.543890
 H         1.898135         1.174800        -0.752448
 H         1.735832         1.464199         0.980673
 H         2.105770        -0.142795         0.288436
 H        -1.119533         1.790334        -0.898668
 H        -3.126691        -0.158946        -0.749471
 H        -1.617749        -0.167538         2.031402
 H        -2.411032        -1.520665         1.426620
 H         0.456520        -2.978696         0.800680
 H        -0.740557        -1.584202        -1.752817
 H        -1.832499        -3.332217        -0.068353
