19
Iteration:  2216
 C         1.465322         0.673779         0.212068
 C         0.056111         0.307623         0.038408
 C        -1.110399         0.946930        -0.373381
 C        -2.068234        -0.201894        -0.160881
 C        -1.659762        -0.791569         1.302334
 C        -0.371019        -1.143272         0.362559
 O         0.607335        -2.197652         0.624925
 C        -1.482324        -1.497231        -0.760334
 O        -2.081258        -2.784985        -0.712279
 H         2.138160        -0.245951         0.159231
 H         1.831186         1.423039        -0.408210
 H         1.682402         1.104607         1.185617
 H        -1.197479         1.866075        -0.864441
 H        -3.117218         0.092792        -0.382675
 H        -1.341411        -0.040257         2.003012
 H        -2.246725        -1.605840         1.748708
 H         0.353252        -2.916348         0.058576
 H        -1.236822        -1.380512        -1.839141
 H        -2.196195        -2.975939        -1.589078
