19
Iteration:  3659charge 0 multiplicity 1
 C         1.557029         0.632778        -0.140129
 C         0.168713         0.180695        -0.038483
 C        -0.870614         0.574412        -0.784165
 C        -2.013860        -0.294386        -0.554049
 C        -1.986092        -0.518456         1.011293
 C        -0.451066        -1.027397         0.533560
 O         0.304496        -1.797618         1.366820
 C        -1.220632        -1.640218        -0.719858
 O        -2.042009        -2.852342        -0.403405
 H         2.192866        -0.073635         0.363222
 H         1.629719         0.574424        -1.194584
 H         1.754669         1.688215         0.201488
 H        -0.840072         1.557104        -1.233416
 H        -3.064501        -0.132129        -0.989986
 H        -1.980556         0.488133         1.574548
 H        -2.599631        -1.300440         1.497758
 H        -0.083648        -2.728589         1.424840
 H        -0.712164        -1.794221        -1.611880
 H        -1.659199        -3.627097        -0.998515
