19
Iteration:   315
 C         1.401456         0.727941         0.202753
 C         0.008054         0.215723        -0.175822
 C        -1.103738         0.820934        -0.191665
 C        -2.098861        -0.264977         0.066799
 C        -1.534227        -0.842991         1.379467
 C        -0.309937        -1.233504         0.344052
 O         0.544277        -2.263778         0.547199
 C        -1.400822        -1.400176        -0.831095
 O        -2.225806        -2.570771        -0.935528
 H         1.276524         1.301108         1.083903
 H         2.288702         0.047057         0.560867
 H         1.980852         1.319080        -0.628410
 H        -1.335923         1.950020        -0.511626
 H        -3.146456        -0.094428        -0.138322
 H        -1.052454        -0.082759         2.127235
 H        -2.188624        -1.696084         1.723519
 H         1.185175        -2.043738         1.301339
 H        -0.989507        -1.074882        -1.836605
 H        -1.629400        -3.420106        -0.902824
