19
Iteration:  2332
 C         1.549273         0.537426        -0.094560
 C        -0.036452         0.277103         0.040698
 C        -1.187559         0.920841        -0.205443
 C        -2.170495        -0.144562         0.094203
 C        -1.637663        -0.956301         1.304672
 C        -0.425868        -1.171242         0.390371
 O         0.549218        -2.115931         0.831916
 C        -1.405204        -1.310996        -0.826074
 O        -1.885074        -2.690534        -0.961347
 H         1.877861         1.076976         0.767867
 H         1.930127        -0.527825        -0.016811
 H         1.890782         1.003202        -1.018982
 H        -1.333700         1.844627        -0.666217
 H        -3.205004        -0.021050        -0.093316
 H        -1.446768        -0.393414         2.248917
 H        -2.312130        -1.853423         1.484277
 H         0.173800        -2.990832         0.628768
 H        -1.129988        -0.980966        -1.841234
 H        -2.255507        -2.938824        -1.743926
