19
Iteration:  1247charge 0 multiplicity 1
 C         1.436764         0.664343         0.142643
 C         0.109449         0.166255        -0.144399
 C        -1.051434         0.772078        -0.548005
 C        -2.055938        -0.302832        -0.324401
 C        -1.632219        -0.669588         1.106951
 C        -0.419165        -1.155502         0.404105
 O         0.542409        -1.951554         1.083981
 C        -1.358354        -1.593308        -0.845687
 O        -2.215986        -2.741772        -0.651052
 H         2.052130         1.071957        -0.661738
 H         1.355113         1.483103         0.861889
 H         2.007652        -0.124393         0.626209
 H        -1.197582         1.580710        -1.209812
 H        -3.032543         0.085858        -0.616525
 H        -1.516277         0.210610         1.794265
 H        -2.165651        -1.376439         1.663008
 H         0.756525        -2.870190         0.812374
 H        -0.946444        -1.416921        -1.852801
 H        -1.850758        -2.994556         0.281280
