19
Iteration:  2817charge 0 multiplicity 1
 C         1.516671         0.708146         0.004911
 C         0.116192         0.187396         0.099895
 C        -1.069058         0.814887        -0.299152
 C        -2.138723        -0.201621        -0.004053
 C        -1.650409        -0.897105         1.335035
 C        -0.499683        -1.201819         0.382729
 O         0.352841        -2.207260         0.814917
 C        -1.502587        -1.325681        -0.828843
 O        -1.848253        -2.700245        -1.061875
 H         2.097796         0.224512        -0.836113
 H         1.359665         1.821934        -0.182056
 H         2.102275         0.581917         0.994775
 H        -1.082697         1.866042        -0.480639
 H        -3.145600         0.142331        -0.197532
 H        -1.487761        -0.212217         2.234891
 H        -2.169602        -1.784056         1.565704
 H         1.307793        -1.850193         0.734896
 H        -1.207601        -0.868946        -1.838695
 H        -2.081315        -3.287932        -0.221307
