19
Iteration:  3162
 C         1.511715         0.523684         0.046709
 C         0.062419         0.280946        -0.070633
 C        -1.111586         0.803159        -0.454502
 C        -2.186718        -0.243828        -0.195146
 C        -1.774099        -0.662398         1.179751
 C        -0.448528        -1.176376         0.419909
 O         0.473442        -2.028541         1.001697
 C        -1.324616        -1.501696        -0.833070
 O        -1.831401        -2.747960        -0.673405
 H         1.715741         1.629075         0.176224
 H         1.977176        -0.100279         0.836820
 H         1.883799         0.234175        -0.935743
 H        -1.260846         1.835782        -0.947496
 H        -3.256646         0.037183        -0.356727
 H        -1.656026         0.197125         1.899820
 H        -2.466609        -1.390086         1.620018
 H         0.377373        -3.017570         0.708133
 H        -0.851132        -1.109847        -1.825860
 H        -2.429612        -3.038165        -1.412505
