19
Iteration:  1827charge 0 multiplicity 1
 C         1.548474         0.642134        -0.181520
 C         0.113314         0.249293         0.073855
 C        -1.065947         0.826096        -0.470708
 C        -2.063379        -0.274508        -0.246562
 C        -1.881793        -0.806675         1.137353
 C        -0.463002        -1.159726         0.614926
 O         0.566747        -1.998395         1.033558
 C        -1.209929        -1.480196        -0.737133
 O        -2.134998        -2.704488        -0.711111
 H         1.650956         0.970435        -1.229620
 H         1.845831         1.346849         0.607419
 H         2.231212        -0.229936        -0.021542
 H        -1.308135         1.810760        -0.884585
 H        -3.051948        -0.109509        -0.678659
 H        -1.798422        -0.073143         1.942994
 H        -2.507991        -1.766899         1.241202
 H         0.174289        -2.898660         0.996591
 H        -0.543382        -1.597526        -1.638899
 H        -2.290036        -3.020938        -1.637595
