19
Iteration:  2254charge 0 multiplicity 1
 C         1.458536         0.759595         0.116086
 C         0.091213         0.211540        -0.070523
 C        -1.044347         0.822550        -0.345445
 C        -2.115041        -0.268007        -0.084342
 C        -1.619418        -0.946902         1.294857
 C        -0.413989        -1.225806         0.325742
 O         0.578177        -2.129004         0.770272
 C        -1.423808        -1.363115        -0.840933
 O        -2.067011        -2.638911        -0.759260
 H         2.012014         0.093054         0.721460
 H         1.935203         0.807214        -0.930982
 H         1.311595         1.748104         0.617946
 H        -1.274431         1.934709        -0.299828
 H        -3.130383         0.055463        -0.257670
 H        -1.325989        -0.383046         2.220918
 H        -2.081303        -1.897146         1.627702
 H        -0.015263        -2.965552         0.935529
 H        -1.166847        -1.059382        -1.874162
 H        -2.591489        -2.791511        -1.565649
