19
Iteration:  4143
 C         1.546199         0.345903        -0.115488
 C         0.137636         0.221150        -0.218280
 C        -0.827013         0.486776        -1.192086
 C        -2.028173        -0.388004        -0.717716
 C        -1.919244        -0.207656         0.845220
 C        -0.582200        -0.899752         0.595334
 O         0.034227        -1.539334         1.690334
 C        -1.149454        -1.821186        -0.618493
 O        -1.859454        -2.988828        -0.161335
 H         2.113906        -0.569241        -0.526804
 H         2.216057         1.174174        -0.415408
 H         1.753994         0.306197         0.997887
 H        -1.109560         1.407502        -1.624133
 H        -2.959724        -0.363670        -1.366022
 H        -1.742913         0.794412         1.071939
 H        -2.587060        -0.748121         1.629570
 H         1.023963        -1.786463         1.369207
 H        -0.453170        -1.980959        -1.494587
 H        -2.157449        -3.487329        -0.890995
