19
Iteration:   989
 C         1.517463         0.720331         0.128557
 C         0.091300         0.188248        -0.155396
 C        -1.018926         0.776968        -0.544688
 C        -2.135429        -0.171581        -0.256181
 C        -1.708422        -0.733605         1.229270
 C        -0.430408        -1.162084         0.421611
 O         0.468415        -2.104897         0.856882
 C        -1.395290        -1.516385        -0.786031
 O        -2.064631        -2.783962        -0.660060
 H         1.574088         0.928314         1.202884
 H         2.194093        -0.164101         0.082155
 H         1.687510         1.561325        -0.552922
 H        -1.128000         1.865307        -0.663869
 H        -3.133122         0.249129        -0.362619
 H        -1.588240        -0.020946         2.131642
 H        -2.329776        -1.597556         1.572223
 H         0.499456        -2.073113         1.873573
 H        -0.974904        -1.270103        -1.766960
 H        -1.270283        -3.351587        -1.000721
