19
Iteration:  3457charge 0 multiplicity 1
 C         1.539718         0.569675         0.051386
 C         0.048133         0.249972        -0.129865
 C        -1.014961         0.801769        -0.767846
 C        -2.050668        -0.280172        -0.389305
 C        -1.867971        -0.629302         1.054570
 C        -0.487956        -1.065773         0.568315
 O         0.410398        -1.982736         1.110778
 C        -1.191635        -1.650736        -0.691153
 O        -2.050018        -2.799568        -0.540085
 H         1.899413         0.210552         1.055119
 H         2.229647         0.345404        -0.827211
 H         1.676047         1.648174         0.239881
 H        -1.117121         1.799694        -1.401820
 H        -3.110016        -0.188099        -0.730770
 H        -1.959725         0.256137         1.798849
 H        -2.368209        -1.478149         1.453299
 H         0.881080        -1.764343         2.043712
 H        -0.695496        -1.727305        -1.615752
 H        -1.863731        -3.398246        -1.370654
