19
Iteration:  3436
 C         1.529097         0.593685         0.003192
 C         0.103579         0.168528        -0.020421
 C        -0.965108         0.721365        -0.601390
 C        -2.091107        -0.276316        -0.460508
 C        -1.878395        -0.652430         1.076856
 C        -0.475879        -1.086120         0.500129
 O         0.517700        -1.899152         1.145281
 C        -1.305435        -1.555616        -0.794632
 O        -2.071387        -2.802879        -0.582534
 H         1.809332         0.785328         1.061016
 H         2.017356        -0.286852        -0.418934
 H         1.722100         1.484653        -0.557396
 H        -1.206837         1.656519        -1.236292
 H        -3.038523        -0.184077        -1.005332
 H        -1.804316         0.188501         1.855612
 H        -2.471764        -1.488589         1.423127
 H         0.229374        -1.603989         2.031120
 H        -0.825766        -1.570197        -1.725328
 H        -1.533080        -3.570530        -0.741713
