19
Iteration:  4864
 C         1.721417         0.307341        -0.093768
 C         0.195348         0.063573        -0.314844
 C        -0.569813         0.215991        -1.490761
 C        -1.900400        -0.605763        -1.055261
 C        -2.076201        -0.258646         0.546444
 C        -0.646374        -0.795301         0.622177
 O        -0.171491        -1.006201         1.917887
 C        -1.182728        -1.899467        -0.432627
 O        -1.892283        -2.908681         0.266422
 H         2.203567         0.243888        -1.054901
 H         1.880847         1.320561         0.300155
 H         2.159889        -0.470361         0.502983
 H        -0.280568         0.588246        -2.397277
 H        -2.705113        -0.707687        -1.849214
 H        -2.160757         0.913571         0.885673
 H        -2.770360        -0.971773         1.004182
 H         0.159996        -1.904976         2.109273
 H        -0.448460        -2.237407        -1.121011
 H        -2.485918        -3.307881        -0.532490
