19
Iteration:   554
 C         1.516782         0.691265         0.199062
 C         0.072036         0.331144        -0.156044
 C        -1.077955         0.917166        -0.391101
 C        -2.144181        -0.186560        -0.040432
 C        -1.646466        -0.790760         1.335256
 C        -0.406059        -1.177910         0.289513
 O         0.463695        -2.254302         0.690988
 C        -1.458235        -1.396163        -0.810779
 O        -1.921830        -2.788473        -0.664655
 H         1.631169         1.763486         0.036680
 H         1.501753         0.478447         1.258134
 H         2.187446        -0.074119        -0.234217
 H        -1.441536         1.899240        -0.753456
 H        -3.225571         0.008951        -0.226468
 H        -1.478646         0.042015         2.062395
 H        -2.230366        -1.576855         1.757432
 H         0.305381        -3.065990         0.100213
 H        -1.024563        -1.202759        -1.789041
 H        -2.119047        -3.114061        -1.617472
