19
Iteration:  4786
 C         1.680008         0.531632        -0.145285
 C         0.247925        -0.050081        -0.330374
 C        -0.551701         0.171766        -1.365800
 C        -1.855768        -0.608318        -0.981639
 C        -2.021802        -0.226898         0.543329
 C        -0.616082        -0.873192         0.634386
 O        -0.104309        -1.175306         1.909394
 C        -1.169811        -1.946888        -0.416527
 O        -2.162300        -2.832056         0.039153
 H         2.460913        -0.067411         0.275958
 H         2.062312         0.997208        -1.089173
 H         1.544651         1.303505         0.620254
 H        -0.428540         0.417034        -2.468268
 H        -2.733431        -0.900252        -1.584455
 H        -2.198180         0.871529         1.010856
 H        -2.736977        -0.812712         1.103010
 H         0.890247        -0.897667         1.966998
 H        -0.349445        -2.337004        -0.979218
 H        -1.782595        -3.286096         0.866121
