19
Iteration:  1831charge 0 multiplicity 1
 C         1.559263         0.639163        -0.208743
 C         0.102470         0.239171         0.088683
 C        -1.030581         0.821830        -0.425642
 C        -2.061192        -0.272510        -0.271858
 C        -1.929685        -0.803658         1.165408
 C        -0.462902        -1.144405         0.585453
 O         0.570693        -1.992625         1.030190
 C        -1.211042        -1.507512        -0.748167
 O        -2.109121        -2.715466        -0.713381
 H         1.538863         0.868425        -1.243077
 H         1.826306         1.457716         0.560795
 H         2.211099        -0.205307        -0.059610
 H        -1.218653         1.847186        -0.752534
 H        -3.110563        -0.152540        -0.637904
 H        -1.842336        -0.038290         1.953290
 H        -2.686892        -1.532757         1.290519
 H         0.174900        -2.904644         0.960010
 H        -0.476228        -1.518881        -1.568049
 H        -2.351620        -3.016787        -1.656164
