19
Iteration:  4436charge 0 multiplicity 1
 C         1.553936         0.485645        -0.087885
 C         0.188675         0.050188        -0.238533
 C        -0.704320         0.309605        -1.201927
 C        -1.962225        -0.538318        -0.852915
 C        -2.035250        -0.295147         0.685763
 C        -0.532536        -0.955457         0.582533
 O         0.136120        -1.290736         1.792332
 C        -1.203534        -1.832201        -0.517262
 O        -1.986308        -2.916447        -0.103250
 H         1.832858         1.016337        -0.973446
 H         1.864819         1.195322         0.724095
 H         2.206666        -0.419961         0.069255
 H        -0.745360         1.166768        -1.932704
 H        -2.793942        -0.430026        -1.558837
 H        -2.066507         0.712615         1.040369
 H        -2.813932        -0.904141         1.203423
 H         0.868148        -1.877998         1.593827
 H        -0.413920        -1.999837        -1.298464
 H        -2.957852        -2.695663        -0.170808
