19
Iteration:   243charge 0 multiplicity 1
 C         1.455571         0.637168         0.021465
 C         0.101367         0.179561         0.087946
 C        -1.158922         0.891123        -0.090238
 C        -2.092513        -0.258152        -0.051730
 C        -1.679196        -0.955016         1.268140
 C        -0.439797        -1.248548         0.341658
 O         0.685166        -2.116269         0.638032
 C        -1.384012        -1.345644        -0.854821
 O        -2.114847        -2.568376        -0.776622
 H         1.481146         1.783899        -0.133172
 H         2.039531         0.498290         0.980432
 H         1.926149         0.164238        -0.842710
 H        -1.490056         1.998164        -0.056107
 H        -3.173243        -0.143971        -0.303613
 H        -1.529606        -0.316934         2.124006
 H        -2.296107        -1.807776         1.453948
 H         0.622993        -2.877505         0.011072
 H        -1.080415        -1.098194        -1.868347
 H        -2.209435        -2.915228        -1.691850
