19
Iteration:  1819charge 0 multiplicity 1
 C         1.522851         0.623515        -0.120841
 C         0.058885         0.283277         0.010047
 C        -1.055333         0.803287        -0.491665
 C        -2.082744        -0.254464        -0.264451
 C        -1.780212        -0.833720         1.152555
 C        -0.419725        -1.150406         0.565568
 O         0.550475        -2.014621         1.061431
 C        -1.258867        -1.498903        -0.739760
 O        -2.148347        -2.666689        -0.692215
 H         1.831970         1.181189        -0.952551
 H         1.958081         1.373020         0.662465
 H         2.143884        -0.267911        -0.028596
 H        -1.259639         1.631277        -1.176167
 H        -3.096976        -0.102805        -0.706089
 H        -1.968780        -0.205689         2.043179
 H        -2.150886        -1.815992         1.365680
 H         0.218484        -2.963965         1.116796
 H        -0.811445        -1.452901        -1.761551
 H        -2.076983        -3.003243        -1.669764
