19
Iteration:  2004charge 0 multiplicity 1
 C         1.511473         0.753506         0.161387
 C         0.127839         0.180648        -0.115884
 C        -1.006578         0.806207        -0.403475
 C        -2.129987        -0.207141        -0.132438
 C        -1.625425        -0.713672         1.240512
 C        -0.446906        -1.188630         0.404978
 O         0.612766        -2.094468         0.781606
 C        -1.482005        -1.522108        -0.801057
 O        -2.177891        -2.745621        -0.787569
 H         1.476996         0.996490         1.190709
 H         2.348742        -0.020019        -0.015794
 H         1.527573         1.669967        -0.448184
 H        -1.238302         1.771234        -0.761249
 H        -3.150719         0.070559        -0.429274
 H        -1.384587        -0.011671         2.120967
 H        -2.268587        -1.535138         1.704820
 H         0.328872        -2.861410         1.313746
 H        -1.242945        -1.241574        -1.857014
 H        -1.694856        -3.568393        -0.860449
