19
Iteration:  4733charge 0 multiplicity 1
 C         1.584651         0.589311        -0.060974
 C         0.289990         0.025557        -0.315763
 C        -0.562247         0.123081        -1.360745
 C        -1.838063        -0.607269        -0.980139
 C        -1.998888        -0.119362         0.546732
 C        -0.629745        -0.808717         0.639101
 O        -0.043254        -1.236193         1.813228
 C        -1.235524        -1.946569        -0.400749
 O        -2.147010        -2.955687         0.070506
 H         1.743764         0.665339         1.052158
 H         2.349635        -0.207599        -0.315881
 H         1.882256         1.503527        -0.635455
 H        -0.471383         0.517832        -2.434315
 H        -2.766319        -0.522658        -1.602166
 H        -2.007756         1.032140         0.711114
 H        -2.789553        -0.468670         1.161068
 H         0.887967        -1.597102         1.518844
 H        -0.406646        -2.351380        -1.060509
 H        -1.682326        -3.428835         0.814420
