19
Iteration:  1473charge 0 multiplicity 1
 C         1.488662         0.734806         0.104307
 C         0.095815         0.128745        -0.061235
 C        -0.977443         0.763509        -0.673318
 C        -2.036222        -0.317306        -0.360923
 C        -1.809001        -0.508545         1.138492
 C        -0.466930        -1.163258         0.532930
 O         0.493796        -2.083449         0.952335
 C        -1.269378        -1.612036        -0.693211
 O        -2.193501        -2.773942        -0.592747
 H         1.669789         1.625933        -0.631066
 H         1.600741         1.109987         1.101382
 H         2.340778         0.021230        -0.156069
 H        -1.002239         1.694410        -1.333741
 H        -3.042731        -0.223289        -0.764470
 H        -1.731468         0.481718         1.694249
 H        -2.420842        -1.297948         1.646079
 H         0.921502        -1.876882         1.791145
 H        -0.654930        -1.520062        -1.659054
 H        -1.760805        -3.482610        -1.159713
