19
Iteration:  3521charge 0 multiplicity 1
 C         1.515182         0.745976         0.028161
 C         0.127434         0.229870        -0.121642
 C        -0.908711         0.733740        -0.776912
 C        -2.090619        -0.232026        -0.514105
 C        -1.863756        -0.582691         1.009583
 C        -0.460467        -1.100119         0.498605
 O         0.289991        -2.088171         1.224520
 C        -1.284100        -1.680697        -0.690592
 O        -1.947411        -2.871105        -0.447259
 H         2.162126         0.630182        -0.867806
 H         1.776562         1.825731         0.329147
 H         2.054117         0.281285         0.891270
 H        -1.051649         1.804904        -1.129463
 H        -3.082391        -0.186646        -1.033624
 H        -1.906807         0.294758         1.737382
 H        -2.265951        -1.392108         1.522478
 H         0.934929        -1.642968         1.821434
 H        -0.771570        -1.606948        -1.752854
 H        -2.713522        -2.908701        -1.018280
