19
Iteration:  1741charge 0 multiplicity 1
 C         1.479697         0.711632         0.214436
 C         0.109020         0.242102         0.042812
 C        -1.000377         0.744557        -0.648028
 C        -2.109280        -0.276622        -0.349582
 C        -1.744831        -0.700628         1.146713
 C        -0.434256        -1.148829         0.395368
 O         0.516040        -2.147536         0.727409
 C        -1.386938        -1.534675        -0.745144
 O        -2.104045        -2.647992        -0.536051
 H         1.689333         1.650617         0.652939
 H         2.074698        -0.044814         0.907580
 H         1.991925         0.688289        -0.766621
 H        -1.173418         1.616615        -1.235598
 H        -3.100529        -0.000496        -0.711082
 H        -1.574158        -0.036936         1.986968
 H        -2.435337        -1.498609         1.487337
 H         0.311940        -2.196700         1.736288
 H        -0.814623        -1.460879        -1.717337
 H        -1.482905        -3.305036         0.030069
