19
Iteration:  1379charge 0 multiplicity 1
 C         1.507989         0.548339        -0.163149
 C         0.014717         0.235607         0.064071
 C        -0.973240         0.817031        -0.520865
 C        -2.070062        -0.189569        -0.411824
 C        -1.988825        -0.657651         1.113844
 C        -0.462057        -1.153507         0.576610
 O         0.524550        -1.929412         1.213451
 C        -1.247750        -1.530044        -0.695226
 O        -1.992238        -2.821091        -0.743021
 H         1.803310         1.541107        -0.116096
 H         2.189683        -0.111645         0.426515
 H         1.671387         0.273741        -1.204909
 H        -0.936388         1.598586        -1.373866
 H        -3.035117        -0.160428        -0.984350
 H        -2.102423         0.228509         1.803178
 H        -2.503222        -1.544594         1.340475
 H         0.587894        -2.766793         0.640322
 H        -0.596250        -1.591408        -1.603233
 H        -1.925714        -3.159020         0.122232
