19
Iteration:  1528charge 0 multiplicity 1
 C         1.551377         0.694352         0.113172
 C         0.129400         0.174984        -0.170396
 C        -0.987040         0.794487        -0.583138
 C        -2.075064        -0.203843        -0.322007
 C        -1.771498        -0.643341         1.112937
 C        -0.485315        -1.185577         0.301902
 O         0.479861        -1.989498         1.048873
 C        -1.390373        -1.575582        -0.855262
 O        -2.093616        -2.854520        -0.548268
 H         2.331870         0.824860        -0.711908
 H         1.499136         1.563090         0.699909
 H         2.038182        -0.131818         0.734251
 H        -1.272813         1.840785        -0.780371
 H        -3.055908         0.186483        -0.617174
 H        -1.635029         0.178371         1.930943
 H        -2.451428        -1.377468         1.549960
 H        -0.012976        -2.160394         1.933405
 H        -0.784735        -1.688048        -1.821264
 H        -1.457150        -3.267948         0.017865
