19
Iteration:  1128
 C         1.517351         0.500331        -0.163649
 C         0.004726         0.204446         0.038362
 C        -1.036621         0.788609        -0.503464
 C        -2.103961        -0.273445        -0.230870
 C        -1.818487        -0.705376         1.265578
 C        -0.443217        -1.122236         0.542158
 O         0.508299        -1.979156         1.091673
 C        -1.340851        -1.440721        -0.810742
 O        -1.996565        -2.735058        -0.818216
 H         1.871063        -0.116234        -0.963654
 H         1.807602         1.532409        -0.603555
 H         2.234727         0.368985         0.645928
 H        -1.166453         1.690144        -1.144899
 H        -3.123813         0.033704        -0.480210
 H        -1.712488         0.085168         2.021948
 H        -2.227615        -1.528689         1.736313
 H         0.258475        -2.371102         1.965585
 H        -1.017701        -1.224712        -1.851146
 H        -1.422183        -3.324431        -1.221758
