19
Iteration:   642charge 0 multiplicity 1
 C         1.469482         0.634612        -0.097879
 C         0.039487         0.197732        -0.005152
 C        -1.101968         0.863483        -0.272617
 C        -2.142292        -0.276502         0.016080
 C        -1.608020        -0.945890         1.339304
 C        -0.441166        -1.256687         0.422167
 O         0.543968        -2.142361         0.934339
 C        -1.360236        -1.363354        -0.906418
 O        -2.123727        -2.527708        -0.981026
 H         1.771254         1.491257         0.481683
 H         2.155217        -0.227142         0.050642
 H         1.785949         0.965043        -1.112263
 H        -1.465086         1.718526        -0.773280
 H        -3.242765        -0.177067        -0.233266
 H        -1.309974        -0.265323         2.123380
 H        -2.187272        -1.784104         1.502448
 H         0.948956        -1.682100         1.713202
 H        -0.815479        -0.995468        -1.781245
 H        -1.596646        -3.428787        -1.052278
