19
Iteration:  4613
 C         1.663548         0.481700        -0.116807
 C         0.231852         0.042344        -0.327861
 C        -0.721732         0.156793        -1.335661
 C        -1.915029        -0.647391        -0.790437
 C        -2.008674        -0.125074         0.675120
 C        -0.504553        -0.854244         0.686316
 O        -0.050439        -1.192994         1.920812
 C        -1.182788        -1.910369        -0.498698
 O        -2.118084        -2.935217        -0.219753
 H         2.307784         0.148619        -0.966361
 H         1.751809         1.585233        -0.141117
 H         2.084744         0.046592         0.823241
 H        -0.618925         0.733950        -2.262198
 H        -2.775728        -0.784621        -1.441143
 H        -1.886196         0.961117         0.945176
 H        -2.714814        -0.526426         1.303254
 H         0.794025        -0.844960         2.043882
 H        -0.303602        -2.255464        -1.145403
 H        -1.677977        -3.594242         0.274306
