19
Iteration:  3247
 C         1.445654         0.730803         0.059845
 C         0.088977         0.241576        -0.053635
 C        -1.004110         0.724853        -0.660737
 C        -2.126312        -0.274197        -0.208168
 C        -1.632209        -0.751139         1.222076
 C        -0.399277        -1.148897         0.402569
 O         0.452069        -2.053257         1.042224
 C        -1.291278        -1.516906        -0.770810
 O        -2.116344        -2.695525        -0.709264
 H         1.852811         0.245669         0.913692
 H         2.018417         0.533924        -0.862287
 H         1.505962         1.815423         0.225158
 H        -1.288551         1.750682        -1.050334
 H        -3.119627         0.107576        -0.547843
 H        -1.438653         0.021830         1.975722
 H        -2.271135        -1.641034         1.483554
 H         0.094389        -2.837997         1.297127
 H        -0.907840        -1.416175        -1.729096
 H        -1.754986        -3.535210        -0.803122
