19
Iteration:   485charge 0 multiplicity 1
 C         1.477327         0.646535         0.004328
 C         0.104700         0.248962         0.140839
 C        -1.124097         0.917020        -0.261752
 C        -2.098153        -0.262759        -0.106866
 C        -1.715204        -0.961043         1.192030
 C        -0.408430        -1.180461         0.396260
 O         0.669274        -2.085304         0.769001
 C        -1.335657        -1.426667        -0.845214
 O        -2.135618        -2.657407        -0.753626
 H         1.816578         0.630178        -1.107540
 H         1.759627         1.688358         0.175629
 H         2.095763         0.022826         0.667950
 H        -1.302783         1.989950        -0.489752
 H        -3.092866        -0.006291        -0.439994
 H        -1.712111        -0.388545         2.075112
 H        -2.149652        -1.946619         1.253958
 H         0.222729        -2.990553         0.774684
 H        -0.984530        -1.233390        -1.900425
 H        -2.947461        -2.525564        -1.363399
