19
Iteration:   193
 C         1.485897         0.602992        -0.166527
 C         0.026310         0.237833        -0.012895
 C        -1.068971         0.888610        -0.112578
 C        -2.240353        -0.191416         0.171725
 C        -1.681217        -0.945901         1.433421
 C        -0.457928        -1.133708         0.452591
 O         0.415327        -2.267064         0.692055
 C        -1.481419        -1.263353        -0.807614
 O        -1.645209        -2.636391        -1.043438
 H         1.738258         1.314454        -1.028670
 H         1.798474         1.164477         0.800241
 H         2.157660        -0.375043        -0.187810
 H        -1.369861         1.868488        -0.261839
 H        -3.296972         0.111386         0.180313
 H        -1.491805        -0.269430         2.297978
 H        -2.242315        -1.894994         1.750370
 H         0.020734        -2.978377         0.075496
 H        -1.110226        -0.824879        -1.772067
 H        -2.460790        -2.867904        -1.611268
