19
Iteration:  3671charge 0 multiplicity 1
 C         1.564375         0.647193        -0.141125
 C         0.146083         0.175853        -0.093930
 C        -0.914362         0.698434        -0.818386
 C        -2.079800        -0.303546        -0.549813
 C        -1.888110        -0.521346         0.960315
 C        -0.483687        -1.098330         0.548413
 O         0.344640        -1.843602         1.428305
 C        -1.278567        -1.701579        -0.759689
 O        -1.982378        -2.829712        -0.366510
 H         2.168431        -0.209120         0.178740
 H         2.046934         1.009569        -1.016571
 H         1.787099         1.405856         0.647294
 H        -0.914690         1.608895        -1.385725
 H        -3.053903        -0.107558        -1.085062
 H        -1.908024         0.425738         1.623083
 H        -2.591649        -1.251728         1.347243
 H        -0.321297        -2.488038         1.871709
 H        -0.793755        -1.791886        -1.697120
 H        -1.964734        -3.451159        -1.076774
