19
Iteration:  2568charge 0 multiplicity 1
 C         1.395618         0.658951        -0.050549
 C         0.039962         0.155671         0.068258
 C        -1.140282         0.849158        -0.153358
 C        -2.154492        -0.276882         0.077286
 C        -1.585683        -0.872059         1.380839
 C        -0.414667        -1.234496         0.512404
 O         0.649322        -2.187508         0.813145
 C        -1.388413        -1.328573        -0.805171
 O        -2.087132        -2.580686        -1.169754
 H         1.615842         1.357480        -0.822647
 H         1.698314         1.185127         0.845645
 H         2.096864        -0.218480        -0.045162
 H        -1.281391         1.921128        -0.600797
 H        -3.185179        -0.139394        -0.176102
 H        -1.488986        -0.127549         2.287754
 H        -2.150732        -1.727897         1.727499
 H         0.855704        -2.819166         0.032310
 H        -0.807832        -0.942335        -1.604999
 H        -2.331388        -2.488759        -2.170855
