19
Iteration:  1511charge 0 multiplicity 1
 C         1.530914         0.674014         0.159381
 C         0.149594         0.193616        -0.117054
 C        -0.960897         0.810509        -0.609147
 C        -2.091254        -0.287806        -0.413397
 C        -1.746273        -0.790379         1.041673
 C        -0.403788        -1.094905         0.423166
 O         0.471021        -1.976919         0.966182
 C        -1.344132        -1.614147        -0.814245
 O        -2.177819        -2.699947        -0.460875
 H         1.884382         1.039215        -0.758030
 H         1.565989         1.587704         0.856445
 H         2.180647        -0.069398         0.640422
 H        -0.972765         1.677171        -1.201169
 H        -3.125516        -0.184879        -0.770334
 H        -1.757877        -0.070567         1.832422
 H        -2.294747        -1.694406         1.310265
 H         0.206209        -2.058538         1.954658
 H        -1.224893        -1.607258        -1.869872
 H        -1.723864        -3.343257        -0.005711
