19
Iteration:  2298charge 0 multiplicity 1
 C         1.492450         0.637501        -0.081687
 C         0.089232         0.242703         0.182575
 C        -1.081094         0.862897        -0.160908
 C        -2.071032        -0.225109        -0.109612
 C        -1.764584        -0.959529         1.245376
 C        -0.433618        -1.248885         0.456194
 O         0.583449        -2.055527         0.659100
 C        -1.424864        -1.332159        -0.818887
 O        -1.995360        -2.691668        -0.845718
 H         2.093880         0.821410         0.772495
 H         1.996835        -0.216255        -0.647159
 H         1.516633         1.542493        -0.715269
 H        -1.190368         1.922330        -0.255274
 H        -3.051392        -0.183181        -0.510680
 H        -1.811262        -0.358795         2.178397
 H        -2.366791        -1.874790         1.336048
 H         0.429920        -2.626382         1.502025
 H        -0.876299        -1.079537        -1.742037
 H        -2.779857        -2.586135        -1.370863
