19
Iteration:  2783charge 0 multiplicity 1
 C         1.444118         0.643173         0.063892
 C        -0.019791         0.299485         0.043538
 C        -1.134020         0.955651        -0.229306
 C        -2.127308        -0.195046        -0.062104
 C        -1.663857        -0.851982         1.259426
 C        -0.428953        -1.177167         0.392248
 O         0.440758        -2.329378         0.741176
 C        -1.294506        -1.357844        -0.811847
 O        -1.933121        -2.651512        -0.914521
 H         2.080526        -0.280327         0.221217
 H         1.902636         1.116801        -0.804038
 H         1.724285         1.237087         0.978649
 H        -1.535709         1.996738        -0.340523
 H        -3.177628        -0.076421        -0.248181
 H        -1.561487        -0.233546         2.190925
 H        -2.120517        -1.790228         1.375745
 H         0.690848        -2.684043        -0.105480
 H        -0.981775        -1.028803        -1.827926
 H        -1.415737        -3.224320        -0.421773
