19
Iteration:  4924
 C         1.594899         0.490572        -0.133812
 C         0.206815         0.043698        -0.333786
 C        -0.571717        -0.010051        -1.465622
 C        -1.826640        -0.636501        -0.985697
 C        -2.010105        -0.075869         0.463327
 C        -0.590479        -0.770679         0.719245
 O        -0.103844        -1.135984         1.889984
 C        -1.144072        -1.951432        -0.363957
 O        -1.971688        -2.993592         0.127067
 H         1.743493         1.606163        -0.287685
 H         1.849522         0.368934         0.963279
 H         2.453193        -0.076007        -0.623391
 H        -0.307903         0.217771        -2.505940
 H        -2.641449        -0.661558        -1.665395
 H        -2.182102         0.917365         0.722169
 H        -2.884388        -0.615492         1.007617
 H        -0.370536        -0.538233         2.530625
 H        -0.453307        -2.505611        -1.087558
 H        -2.866324        -2.578139         0.038441
