19
Iteration:   888
 C         1.493169         0.572791        -0.156781
 C         0.045017         0.256711        -0.000456
 C        -1.079020         0.860366        -0.360847
 C        -2.146411        -0.202872        -0.070790
 C        -1.627999        -0.732039         1.270286
 C        -0.424960        -1.094998         0.438922
 O         0.372689        -2.096070         0.997089
 C        -1.383465        -1.452452        -0.788315
 O        -1.850101        -2.805563        -0.826644
 H         1.699774         1.049057        -1.060559
 H         1.673692         1.111077         0.875307
 H         2.107327        -0.320755        -0.150683
 H        -1.287056         1.757364        -0.904880
 H        -3.156995         0.014313        -0.468815
 H        -1.609211         0.045231         2.112096
 H        -2.219987        -1.602446         1.623164
 H        -0.156156        -2.867538         0.866165
 H        -0.919938        -1.187084        -1.741973
 H        -1.962651        -2.928342        -1.729527
