19
Iteration:  1084
 C         1.557497         0.621012         0.006880
 C         0.099752         0.253962        -0.033596
 C        -1.008116         0.794306        -0.535550
 C        -2.126303        -0.301106        -0.196081
 C        -1.716618        -0.780703         1.253906
 C        -0.437711        -1.130739         0.470937
 O         0.557222        -2.016239         1.047990
 C        -1.388982        -1.506638        -0.843581
 O        -2.169105        -2.738904        -0.867494
 H         2.050240        -0.297014        -0.050878
 H         1.773023         1.153741        -0.979398
 H         1.674144         1.301949         0.810460
 H        -1.169321         1.776416        -1.016811
 H        -3.168454        -0.172273        -0.532098
 H        -1.654844         0.065899         1.954488
 H        -2.348637        -1.478809         1.661163
 H         0.581763        -1.699789         1.993491
 H        -0.869627        -1.505555        -1.812630
 H        -1.794574        -3.331600        -0.275347
