19
Iteration:  1710
 C         1.544446         0.767256         0.122732
 C         0.132560         0.218542        -0.124278
 C        -0.979504         0.864195        -0.461503
 C        -2.059978        -0.205613        -0.353021
 C        -1.789559        -0.714165         1.090844
 C        -0.429981        -1.159358         0.377427
 O         0.374039        -2.210880         0.920668
 C        -1.375089        -1.614453        -0.791675
 O        -2.083076        -2.724574        -0.527982
 H         1.551548         1.411160         0.937259
 H         2.208325        -0.157664         0.199569
 H         1.921441         1.328861        -0.723332
 H        -1.295755         1.802909        -0.813094
 H        -3.078482         0.117350        -0.632684
 H        -1.651240        -0.062584         1.943536
 H        -2.418637        -1.556688         1.304676
 H         0.865656        -1.756309         1.568961
 H        -0.853290        -1.500148        -1.727021
 H        -1.388871        -3.410179        -0.546941
