19
Iteration:  1680charge 0 multiplicity 1
 C         1.500974         0.686911         0.016354
 C         0.142789         0.198611        -0.002228
 C        -0.978390         0.748223        -0.589588
 C        -2.061799        -0.292666        -0.281521
 C        -1.735468        -0.590456         1.246821
 C        -0.485750        -1.105588         0.542788
 O         0.388273        -2.124563         1.037419
 C        -1.418824        -1.603591        -0.795194
 O        -2.073112        -2.741193        -0.807564
 H         1.934742         0.695282         1.121688
 H         2.112709         0.048543        -0.608188
 H         1.492535         1.675820        -0.458372
 H        -1.116529         1.621982        -1.228619
 H        -3.109592         0.043032        -0.461538
 H        -1.568858         0.345466         1.900868
 H        -2.290706        -1.387670         1.721071
 H         1.206920        -1.775410         1.520318
 H        -0.789388        -1.380935        -1.686447
 H        -1.449553        -3.405894        -1.024809
