19
Iteration:   444
 C         1.466839         0.658335        -0.136125
 C         0.150092         0.151483        -0.028247
 C        -1.127214         0.809654        -0.213258
 C        -2.155684        -0.241802         0.041933
 C        -1.705284        -0.956477         1.309903
 C        -0.315635        -1.228062         0.478157
 O         0.742740        -2.036159         0.944277
 C        -1.464939        -1.390410        -0.828052
 O        -2.222908        -2.566982        -1.055316
 H         2.275052        -0.022152        -0.511690
 H         1.608980         1.581494        -0.682230
 H         1.859084         0.920148         0.874428
 H        -1.193428         1.849035        -0.455663
 H        -3.226299        -0.083685        -0.084848
 H        -1.684542        -0.440639         2.294389
 H        -2.327843        -1.815288         1.542830
 H         0.385907        -2.883144         1.112204
 H        -1.162089        -1.011109        -1.793446
 H        -1.986779        -2.938367        -1.890549
