19
Iteration:  4920charge 0 multiplicity 1
 C         1.596546         0.486089        -0.149230
 C         0.209049         0.053759        -0.323008
 C        -0.574165         0.012391        -1.481728
 C        -1.810312        -0.650735        -0.963662
 C        -2.018245        -0.072934         0.469825
 C        -0.649966        -0.791919         0.703317
 O        -0.073968        -1.138921         1.913216
 C        -1.136590        -1.960996        -0.359842
 O        -1.964318        -2.974756         0.118470
 H         1.794990         1.545431        -0.426770
 H         1.746545         0.332670         0.905901
 H         2.351865        -0.167074        -0.580661
 H        -0.290210         0.246759        -2.571704
 H        -2.649184        -0.677899        -1.700936
 H        -2.142629         1.050584         0.672951
 H        -2.909037        -0.668946         0.954655
 H        -0.438069        -0.577010         2.694088
 H        -0.377043        -2.438179        -0.965360
 H        -2.833208        -2.595715        -0.074330
