19
Iteration:  3762
 C         1.584703         0.659818         0.046407
 C         0.158764         0.159035        -0.181251
 C        -0.912393         0.556427        -0.987910
 C        -2.034485        -0.412259        -0.669678
 C        -1.876879        -0.520183         0.965914
 C        -0.485541        -0.990839         0.552579
 O         0.277912        -1.794171         1.433411
 C        -1.282698        -1.680596        -0.714269
 O        -1.996530        -2.815239        -0.320620
 H         1.641973         1.608461        -0.575248
 H         1.993993         0.737810         1.135838
 H         2.237320        -0.046233        -0.449673
 H        -0.887995         1.570279        -1.454798
 H        -2.908727        -0.319129        -1.233423
 H        -1.784878         0.409989         1.557124
 H        -2.474508        -1.198981         1.635903
 H         0.359679        -2.659681         1.070562
 H        -0.653756        -1.921708        -1.599982
 H        -2.804149        -2.551843         0.107708
