19
Iteration:  2562
 C         1.387577         0.667513        -0.054018
 C         0.018332         0.231158         0.087765
 C        -1.123458         0.883359        -0.142143
 C        -2.140778        -0.266610         0.055077
 C        -1.603253        -0.911611         1.342774
 C        -0.350264        -1.269859         0.477734
 O         0.598218        -2.207844         0.815208
 C        -1.376182        -1.358056        -0.745277
 O        -2.101928        -2.560377        -1.153798
 H         1.729576         1.370948        -0.878017
 H         1.627108         1.270430         0.876263
 H         2.178612        -0.068746        -0.060477
 H        -1.262987         1.708323        -0.815172
 H        -3.243119        -0.191929        -0.143827
 H        -1.273844        -0.350353         2.161470
 H        -2.173706        -1.785048         1.722339
 H         0.811197        -2.664104         0.059613
 H        -0.702505        -1.078672        -1.622227
 H        -2.337206        -2.497733        -2.020399
