19
Iteration:  3003
 C         1.470244         0.690727         0.081635
 C         0.065371         0.277500         0.139359
 C        -1.080558         0.832623        -0.411708
 C        -2.093810        -0.276132        -0.185243
 C        -1.719322        -0.755939         1.143673
 C        -0.367057        -1.195737         0.396598
 O         0.593146        -2.161825         0.841435
 C        -1.344253        -1.469124        -0.858712
 O        -2.175937        -2.688254        -0.775208
 H         2.143856         0.010614         0.598628
 H         1.856599         0.750957        -0.902472
 H         1.656087         1.667603         0.536277
 H        -1.420390         1.936551        -0.614359
 H        -3.205254        -0.121607        -0.416316
 H        -1.724398         0.036158         1.998323
 H        -2.336555        -1.602886         1.410336
 H         0.734151        -2.268437         1.853838
 H        -0.838107        -1.452395        -1.832419
 H        -1.671317        -3.469631        -1.242472
