19
Iteration:  2230
 C         1.492563         0.741581         0.223141
 C         0.109244         0.207796        -0.090653
 C        -1.023782         0.816839        -0.337521
 C        -2.171951        -0.185351        -0.011365
 C        -1.596307        -0.790534         1.238074
 C        -0.432892        -1.224566         0.331590
 O         0.574780        -2.120269         0.695855
 C        -1.483222        -1.411956        -0.807801
 O        -2.071565        -2.758413        -0.733528
 H         2.133439        -0.092274         0.487233
 H         1.910593         1.256532        -0.648141
 H         1.343008         1.377039         1.112099
 H        -1.293757         1.788638        -0.885016
 H        -3.257557         0.095212        -0.112095
 H        -1.458485        -0.205348         2.137704
 H        -2.155662        -1.668508         1.456432
 H         0.443180        -2.953375         0.165695
 H        -1.122452        -1.125763        -1.828050
 H        -2.272381        -3.125704        -1.705488
