19
Iteration:   259
 C         1.529537         0.765492         0.083579
 C         0.080346         0.214263         0.072291
 C        -1.107950         0.853366        -0.109503
 C        -2.153545        -0.246393        -0.080113
 C        -1.710505        -1.066775         1.200999
 C        -0.301848        -1.222131         0.321919
 O         0.744010        -2.071524         0.612782
 C        -1.393006        -1.436367        -0.834565
 O        -2.290553        -2.550970        -0.752784
 H         1.487546         1.810784         0.229501
 H         1.968203         0.198094         0.879527
 H         1.958430         0.501921        -0.901327
 H        -1.046305         1.919725        -0.226375
 H        -3.164951         0.055715        -0.321049
 H        -1.593621        -0.477478         2.144919
 H        -2.236523        -2.031909         1.433137
 H         0.453432        -2.957248         0.714348
 H        -0.967383        -1.303260        -1.854931
 H        -2.387439        -2.952738        -1.593596
