19
Iteration:  1093charge 0 multiplicity 1
 C         1.481744         0.572630        -0.034417
 C         0.103811         0.239483        -0.133751
 C        -1.049772         0.811071        -0.549370
 C        -2.098992        -0.300838        -0.178279
 C        -1.740594        -0.736577         1.315109
 C        -0.425166        -1.116415         0.543079
 O         0.547137        -2.008156         1.054874
 C        -1.318825        -1.546262        -0.794637
 O        -2.158624        -2.692466        -0.929763
 H         2.030453        -0.393619        -0.028592
 H         1.733403         1.231678        -0.850183
 H         1.877677         1.029641         0.924221
 H        -1.377262         1.696907        -1.071666
 H        -3.150822        -0.272715        -0.523083
 H        -1.648312         0.122939         1.972247
 H        -2.267237        -1.567708         1.715477
 H         0.586972        -1.939828         2.054023
 H        -0.686144        -1.318367        -1.670567
 H        -1.705838        -3.319634        -0.424348
