19
Iteration:  3095
 C         1.496156         0.720170        -0.041187
 C         0.096231         0.173569         0.030818
 C        -1.026700         0.749818        -0.373818
 C        -2.113466        -0.280348        -0.289034
 C        -1.806704        -0.798760         1.182642
 C        -0.437374        -1.099940         0.470914
 O         0.493596        -2.118886         0.910663
 C        -1.297817        -1.441821        -0.789771
 O        -2.006518        -2.647268        -0.653325
 H         1.811684         0.874951        -1.080981
 H         1.672966         1.710620         0.447984
 H         2.130409        -0.066315         0.387455
 H        -1.222107         1.780292        -0.644558
 H        -3.095193        -0.092484        -0.673405
 H        -1.886177        -0.076221         1.952178
 H        -2.213996        -1.800017         1.500441
 H        -0.072157        -2.785585         1.200867
 H        -0.682458        -1.445527        -1.785659
 H        -2.115587        -2.977030        -1.577718
