19
Iteration:  1643charge 0 multiplicity 1
 C         1.530299         0.498731        -0.135302
 C         0.101030         0.203215        -0.049845
 C        -1.046423         0.790394        -0.505578
 C        -2.064351        -0.325540        -0.292088
 C        -1.856400        -0.773902         1.159125
 C        -0.428256        -1.082953         0.595663
 O         0.479739        -1.968659         1.237931
 C        -1.308898        -1.492521        -0.795271
 O        -2.122713        -2.648800        -0.827053
 H         2.161629        -0.119848         0.424438
 H         1.827147         0.463528        -1.278044
 H         1.858267         1.488277         0.224554
 H        -1.191578         1.712313        -1.126287
 H        -3.018751        -0.078148        -0.766088
 H        -1.802233        -0.236175         2.046087
 H        -2.458263        -1.686844         1.349404
 H         1.171457        -1.450913         1.807848
 H        -0.750720        -1.426148        -1.703242
 H        -1.603912        -3.457660        -1.140907
