19
Iteration:  4560charge 0 multiplicity 1
 C         1.593648         0.425242        -0.085705
 C         0.150347         0.046973        -0.264012
 C        -0.680439         0.286765        -1.274283
 C        -1.939511        -0.537048        -0.977581
 C        -2.089268        -0.255854         0.576909
 C        -0.600811        -0.861795         0.677443
 O        -0.022291        -1.464269         1.742217
 C        -1.146542        -1.827612        -0.525273
 O        -1.931641        -2.747365         0.084306
 H         2.259012        -0.275153         0.489614
 H         2.086455         0.547221        -1.044238
 H         1.677426         1.349993         0.456381
 H        -0.421124         0.680007        -2.263654
 H        -2.895203        -0.374451        -1.515857
 H        -2.154442         0.801606         0.971799
 H        -2.693461        -0.966091         1.053238
 H         0.825629        -1.081168         1.733751
 H        -0.355283        -2.166834        -1.174473
 H        -1.494853        -3.304921         0.695454
