19
Iteration:  4108charge 0 multiplicity 1
 C         1.638633         0.399193        -0.241962
 C         0.161281         0.038208        -0.194697
 C        -0.735405         0.429998        -1.061428
 C        -2.006401        -0.316930        -0.701346
 C        -2.117711        -0.451082         0.833151
 C        -0.613128        -0.942167         0.655950
 O         0.042665        -1.491572         1.700174
 C        -1.162069        -1.740880        -0.642849
 O        -1.845258        -2.831473        -0.172623
 H         2.374669        -0.357671         0.093145
 H         1.875608         0.767530        -1.246717
 H         1.740244         1.290666         0.463654
 H        -0.562910         1.180142        -1.865401
 H        -2.805529        -0.103808        -1.422479
 H        -2.207181         0.399456         1.480650
 H        -2.672478        -1.313360         1.284075
 H         1.059492        -1.486322         1.422306
 H        -0.446253        -1.944999        -1.428254
 H        -2.467318        -3.117264        -0.821560
