19
Iteration:  4122
 C         1.620591         0.382011        -0.137404
 C         0.183905         0.090314        -0.215487
 C        -0.825233         0.552405        -1.096201
 C        -2.006654        -0.324306        -0.733024
 C        -1.980278        -0.368787         0.809282
 C        -0.599796        -0.947461         0.591910
 O         0.061404        -1.517030         1.713754
 C        -1.244651        -1.691611        -0.591110
 O        -1.811714        -2.939507        -0.150508
 H         2.207200        -0.627260        -0.200070
 H         1.888763         0.922269        -1.076648
 H         1.955789         0.920804         0.767691
 H        -0.657637         0.681548        -2.112819
 H        -3.038143        -0.387551        -1.186090
 H        -2.238813         0.526495         1.313666
 H        -2.735413        -1.222884         0.897209
 H         0.972847        -1.564657         1.598263
 H        -0.608789        -1.863062        -1.567510
 H        -2.481047        -3.243909        -0.816199
