19
Iteration:  1555
 C         1.475059         0.590555        -0.002770
 C         0.090268         0.213395        -0.046361
 C        -0.988076         0.763248        -0.664930
 C        -2.120341        -0.277241        -0.264379
 C        -1.725280        -0.492462         1.217408
 C        -0.485985        -1.090697         0.476390
 O         0.383282        -2.072539         1.008373
 C        -1.384367        -1.558383        -0.710554
 O        -1.934192        -2.817470        -0.738441
 H         2.039465         0.303852        -0.857809
 H         1.694535         1.724418         0.191538
 H         1.870396         0.046345         0.887481
 H        -1.063214         1.547383        -1.454769
 H        -3.128095         0.060747        -0.525516
 H        -1.541609         0.317489         1.854430
 H        -2.398391        -1.227027         1.713732
 H        -0.054766        -2.353884         1.904523
 H        -0.700804        -1.468807        -1.539073
 H        -1.202672        -3.359978        -0.434310
