19
Iteration:   746
 C         1.614886         0.780821         0.049452
 C         0.144986         0.211610        -0.027560
 C        -1.111795         0.799165        -0.275085
 C        -2.125428        -0.298671        -0.074012
 C        -1.584623        -0.812705         1.280622
 C        -0.390523        -1.151273         0.385851
 O         0.574183        -2.118908         0.713120
 C        -1.473252        -1.487154        -0.840800
 O        -2.242382        -2.708298        -0.856093
 H         2.099869         0.105362         0.655929
 H         1.958084         0.814221        -0.976600
 H         1.503014         1.763641         0.406516
 H        -1.276379         1.789258        -0.644460
 H        -3.183264        -0.103105        -0.243995
 H        -1.601855         0.028519         2.042350
 H        -2.175255        -1.667477         1.721273
 H         0.452210        -2.328477         1.616560
 H        -1.076860        -1.138319        -1.774066
 H        -1.860760        -3.399481        -0.391644
