19
Iteration:  2653charge 0 multiplicity 1
 C         1.487423         0.755457         0.069116
 C         0.118470         0.241019         0.195232
 C        -1.073301         0.878053        -0.036826
 C        -2.143386        -0.241765        -0.065376
 C        -1.736337        -0.944628         1.235168
 C        -0.402844        -1.155963         0.372900
 O         0.535261        -2.271617         0.477485
 C        -1.371543        -1.393551        -0.882841
 O        -2.065296        -2.643817        -0.788745
 H         1.411872         1.837314         0.415546
 H         2.120515         0.177953         0.764455
 H         1.820021         0.817397        -1.020161
 H        -1.202924         1.908871        -0.558388
 H        -3.054911         0.114797        -0.501474
 H        -1.598722        -0.196081         2.112640
 H        -2.355384        -1.801987         1.452955
 H         0.832520        -2.353852         1.416846
 H        -0.871982        -1.316845        -1.909768
 H        -2.122508        -3.076750        -1.723726
