19
Iteration:  1361charge 0 multiplicity 1
 C         1.577160         0.508972        -0.137805
 C         0.048744         0.234665         0.007929
 C        -1.011194         0.756028        -0.585548
 C        -2.121994        -0.284387        -0.342173
 C        -1.846321        -0.651263         1.120342
 C        -0.485422        -1.068964         0.573902
 O         0.421280        -1.891945         1.208359
 C        -1.317740        -1.543217        -0.805482
 O        -1.869658        -2.809755        -0.734359
 H         1.696809         1.600278         0.037807
 H         2.114754         0.023360         0.737451
 H         1.979228         0.278347        -1.124812
 H        -1.053909         1.721823        -1.062484
 H        -3.122857         0.090779        -0.555087
 H        -1.818214        -0.003875         1.975979
 H        -2.497749        -1.496753         1.546044
 H         0.157581        -2.806796         0.868958
 H        -0.897576        -1.529231        -1.839507
 H        -2.455743        -2.934023        -0.014292
