19
Iteration:  1339charge 0 multiplicity 1
 C         1.552606         0.558331        -0.017665
 C         0.089375         0.237161        -0.203933
 C        -1.029245         0.818437        -0.588782
 C        -2.190235        -0.270521        -0.246936
 C        -1.724644        -0.627790         1.182481
 C        -0.453291        -1.102775         0.415447
 O         0.350200        -1.975736         1.189837
 C        -1.287742        -1.490520        -0.772673
 O        -1.836929        -2.869380        -0.687793
 H         1.718186         1.656257        -0.082287
 H         1.902412         0.230856         1.050664
 H         2.053921         0.060242        -0.865336
 H        -1.150498         1.700005        -1.268707
 H        -3.196188        -0.122542        -0.680415
 H        -1.716636         0.055847         2.004888
 H        -2.297228        -1.430323         1.788094
 H        -0.214363        -2.681894         1.505708
 H        -0.875441        -1.374560        -1.819791
 H        -2.866648        -2.905039        -0.754500
