19
Iteration:  2763charge 0 multiplicity 1
 C         1.519060         0.674766         0.140174
 C         0.055383         0.243172         0.131357
 C        -1.049552         0.844428        -0.215841
 C        -2.167922        -0.208971        -0.139843
 C        -1.744549        -1.045311         1.255081
 C        -0.442008        -1.177588         0.364196
 O         0.528609        -2.112711         0.669066
 C        -1.389635        -1.349538        -0.862150
 O        -2.048157        -2.613354        -0.819806
 H         2.276587        -0.003431         0.590182
 H         1.852087         0.712534        -0.927801
 H         1.725154         1.683635         0.668762
 H        -1.075359         1.858285        -0.595752
 H        -3.184572         0.087610        -0.365211
 H        -1.604024        -0.298435         2.088926
 H        -2.365943        -1.898480         1.385766
 H         0.733322        -2.783634        -0.065699
 H        -0.965593        -1.091750        -1.919662
 H        -1.415371        -3.282704        -0.403769
