19
Iteration:   458
 C         1.543717         0.683108        -0.091503
 C         0.017415         0.155939         0.084773
 C        -1.048510         0.819344        -0.133140
 C        -2.141085        -0.274492        -0.054062
 C        -1.629155        -0.957564         1.247829
 C        -0.403823        -1.267553         0.390434
 O         0.715326        -1.972525         0.956566
 C        -1.426534        -1.427971        -0.879891
 O        -2.252556        -2.583216        -0.948988
 H         2.030178         0.106745        -0.855206
 H         1.359924         1.724771        -0.517312
 H         2.081948         0.640828         0.893143
 H        -1.296666         1.763952        -0.591484
 H        -3.195746         0.006517        -0.293434
 H        -1.390691        -0.160424         2.048618
 H        -2.112020        -1.972300         1.425708
 H         0.602508        -2.982010         0.899050
 H        -0.951509        -1.121272        -1.829696
 H        -2.434932        -2.746022        -1.943421
