19
Iteration:  3133
 C         1.506963         0.637350        -0.010787
 C         0.114148         0.272416        -0.024572
 C        -1.045538         0.824340        -0.411080
 C        -2.177070        -0.125721        -0.189473
 C        -1.765637        -0.717659         1.222142
 C        -0.455299        -1.095774         0.444349
 O         0.347824        -2.065635         0.930298
 C        -1.324906        -1.524760        -0.806684
 O        -1.793716        -2.907906        -0.705399
 H         1.634779         1.520622        -0.730701
 H         1.879896         0.801230         1.018438
 H         2.211494        -0.129090        -0.413669
 H        -1.074918         1.763734        -0.890744
 H        -3.194294         0.280669        -0.397234
 H        -1.667451         0.001886         2.086210
 H        -2.375336        -1.580272         1.384285
 H        -0.083975        -2.918561         0.755472
 H        -0.854018        -1.244387        -1.742487
 H        -2.525648        -3.030459        -1.225235
