19
Iteration:   429
 C         1.517721         0.665833        -0.129414
 C         0.094308         0.166931         0.013164
 C        -1.131382         0.841564        -0.291685
 C        -2.131070        -0.271687         0.061990
 C        -1.606616        -0.997421         1.404591
 C        -0.398342        -1.155555         0.536051
 O         0.657989        -2.088914         0.848390
 C        -1.492667        -1.368795        -0.802145
 O        -2.172018        -2.556840        -1.104648
 H         2.011503        -0.327822        -0.191853
 H         1.533420         1.337083        -0.991764
 H         1.791174         1.208660         0.760770
 H        -1.339724         1.839498        -0.793359
 H        -3.130011         0.155106        -0.103746
 H        -1.579318        -0.480901         2.337562
 H        -2.083982        -1.999579         1.536756
 H         0.193404        -2.785719         1.374423
 H        -0.877975        -0.999484        -1.659261
 H        -1.477965        -3.045363        -1.563792
