19
Iteration:   771charge 0 multiplicity 1
 C         1.445639         0.791610         0.134292
 C         0.104423         0.166046        -0.079495
 C        -1.086626         0.755321        -0.509879
 C        -2.062193        -0.210970        -0.026944
 C        -1.532160        -0.810303         1.323654
 C        -0.389221        -1.231561         0.394329
 O         0.754680        -2.100863         0.807879
 C        -1.546639        -1.471565        -0.789078
 O        -2.335327        -2.673567        -0.892626
 H         1.952660        -0.158237         0.483513
 H         1.729682         1.154378        -0.783194
 H         1.379233         1.606397         0.879853
 H        -1.057698         1.738386        -0.998862
 H        -3.144390         0.073302        -0.103595
 H        -1.294287        -0.152103         2.211124
 H        -2.131852        -1.620516         1.672523
 H         0.482831        -2.502883         1.617090
 H        -1.023639        -1.075805        -1.692029
 H        -1.762961        -3.402370        -1.184059
