19
Iteration:   457
 C         1.548763         0.687564        -0.097647
 C         0.012397         0.150861         0.077248
 C        -1.047993         0.819563        -0.135812
 C        -2.145246        -0.274652        -0.040276
 C        -1.637844        -0.951639         1.245793
 C        -0.397331        -1.269799         0.395936
 O         0.719006        -1.976033         0.958242
 C        -1.425643        -1.427378        -0.880057
 O        -2.253003        -2.582489        -0.955967
 H         2.048207         0.068125        -0.831967
 H         1.345262         1.711593        -0.513571
 H         2.060655         0.655773         0.900673
 H        -1.299931         1.760160        -0.581502
 H        -3.188604         0.010610        -0.297708
 H        -1.403736        -0.163481         2.057323
 H        -2.089649        -1.960198         1.417080
 H         0.606813        -2.984729         0.916669
 H        -0.977226        -1.089960        -1.819484
 H        -2.401480        -2.747160        -1.936228
