19
Iteration:  2952
 C         1.488549         0.754325         0.023726
 C         0.040888         0.298463         0.027056
 C        -1.088107         0.872957        -0.357510
 C        -2.150338        -0.146372        -0.156028
 C        -1.780247        -0.807166         1.263510
 C        -0.443865        -1.173512         0.434553
 O         0.396293        -2.383847         0.787511
 C        -1.339803        -1.424046        -0.793064
 O        -1.902590        -2.689086        -0.842162
 H         1.854379         1.038310         1.042281
 H         2.120963        -0.201405        -0.129980
 H         1.818418         1.482914        -0.795373
 H        -1.247498         1.932403        -0.785951
 H        -3.207551         0.094442        -0.318155
 H        -1.605344        -0.158852         2.071556
 H        -2.385096        -1.722259         1.408576
 H         1.242066        -2.167140         1.134728
 H        -0.812918        -1.270167        -1.797566
 H        -1.371580        -3.229919        -0.150227
