19
Iteration:  3792
 C         1.533763         0.663207        -0.075630
 C         0.134232         0.166268        -0.227315
 C        -0.870975         0.643314        -0.949705
 C        -1.958416        -0.272193        -0.607176
 C        -1.856085        -0.421934         0.923152
 C        -0.482745        -1.029470         0.592880
 O         0.156068        -1.847853         1.547804
 C        -1.261178        -1.749003        -0.667441
 O        -1.991634        -2.947016        -0.405918
 H         1.494048         1.706109         0.242683
 H         2.286240         0.219296         0.523892
 H         2.025626         0.794011        -1.055914
 H        -0.765799         1.448915        -1.665273
 H        -2.939165        -0.129644        -1.039426
 H        -1.609123         0.517387         1.557442
 H        -2.617128        -1.088194         1.272891
 H         0.520604        -2.627800         1.067021
 H        -0.644837        -1.915214        -1.488977
 H        -2.213323        -3.078250         0.592249
