19
Iteration:   410
 C         1.494382         0.612219        -0.132351
 C         0.084226         0.278190         0.186833
 C        -1.161695         0.811847        -0.200021
 C        -2.182538        -0.278666         0.074975
 C        -1.593252        -0.914152         1.340740
 C        -0.405031        -1.159775         0.392640
 O         0.552109        -2.160056         0.723116
 C        -1.359714        -1.351188        -0.812419
 O        -2.082320        -2.568478        -1.035982
 H         2.097422        -0.392472         0.092142
 H         1.589263         0.924225        -1.142957
 H         1.781249         1.447426         0.519138
 H        -1.254872         1.709611        -0.852844
 H        -3.265332        -0.199058        -0.014861
 H        -1.358139        -0.197310         2.085488
 H        -2.258925        -1.714664         1.540949
 H         0.216315        -2.539726         1.521573
 H        -1.009861        -0.914377        -1.745777
 H        -1.530781        -3.309584        -1.087856
