19
Iteration:  2477charge 0 multiplicity 1
 C         1.553136         0.624482         0.265839
 C         0.034356         0.273637         0.028929
 C        -1.144685         0.823809        -0.272129
 C        -2.185172        -0.262959        -0.016512
 C        -1.640015        -0.852177         1.338013
 C        -0.366439        -1.194941         0.334313
 O         0.517100        -2.225073         0.488473
 C        -1.474863        -1.334566        -0.773678
 O        -1.980911        -2.648799        -0.840169
 H         1.748454         1.300833        -0.620323
 H         1.809475         1.041108         1.235892
 H         2.023531        -0.334951         0.147230
 H        -1.413957         1.766480        -0.769596
 H        -3.258146        -0.076876        -0.296126
 H        -1.567012        -0.164644         2.252707
 H        -2.022850        -1.924115         1.602133
 H         1.438861        -1.746208         0.619843
 H        -0.939631        -0.981334        -1.678298
 H        -2.674051        -2.698334        -1.610053
