19
Iteration:   686charge 0 multiplicity 1
 C         1.567635         0.563877        -0.184186
 C         0.105735         0.265561         0.141271
 C        -1.136999         0.878441        -0.203554
 C        -2.170430        -0.186309        -0.040628
 C        -1.828683        -0.865381         1.401254
 C        -0.564263        -1.123808         0.464530
 O         0.384833        -2.174750         0.607963
 C        -1.309387        -1.394820        -0.776894
 O        -1.868296        -2.717740        -0.855103
 H         2.248999         0.976215         0.550226
 H         2.179275        -0.249279        -0.617639
 H         1.796827         1.409326        -0.881615
 H        -1.145564         1.810838        -0.702002
 H        -3.234176         0.056974        -0.263443
 H        -1.667385        -0.021496         2.047405
 H        -2.413623        -1.690224         1.681665
 H         0.978711        -2.034092         1.357879
 H        -0.838400        -1.113446        -1.739048
 H        -1.104956        -3.385553        -0.982547
