19
Iteration:  3772
 C         1.548904         0.687185        -0.031889
 C         0.155766         0.166588        -0.169372
 C        -0.857303         0.570137        -0.926173
 C        -2.066902        -0.391545        -0.644778
 C        -1.888551        -0.474377         0.965064
 C        -0.467088        -1.080113         0.493748
 O         0.229888        -1.817655         1.490341
 C        -1.231651        -1.707603        -0.728828
 O        -1.987887        -2.796138        -0.335260
 H         1.731723         1.796845        -0.150006
 H         1.931785         0.503596         1.045586
 H         2.241614         0.187305        -0.688060
 H        -0.945747         1.292383        -1.763993
 H        -3.000535        -0.293999        -1.119322
 H        -1.852044         0.530780         1.488218
 H        -2.380207        -1.302789         1.515442
 H         0.397721        -2.618932         1.096822
 H        -0.652506        -1.934137        -1.618396
 H        -2.624671        -2.449028         0.360155
