19
Iteration:  2221charge 0 multiplicity 1
 C         1.461836         0.679353         0.220760
 C         0.093451         0.298524        -0.012203
 C        -1.093635         0.905385        -0.343803
 C        -2.071797        -0.206784        -0.123179
 C        -1.668529        -0.768755         1.272205
 C        -0.401331        -1.195088         0.347673
 O         0.609702        -2.174087         0.658906
 C        -1.501027        -1.483891        -0.769215
 O        -2.079376        -2.786604        -0.708676
 H         2.082357        -0.175091         0.275379
 H         1.896946         1.447765        -0.550326
 H         1.528186         1.264591         1.193424
 H        -1.187612         1.865565        -0.997268
 H        -3.100024         0.157506        -0.240816
 H        -1.232888        -0.132796         2.087441
 H        -2.124125        -1.706354         1.633188
 H         0.302235        -2.872349         0.012719
 H        -1.281156        -1.184593        -1.821525
 H        -2.154405        -2.908963        -1.777157
