19
Iteration:  3214charge 0 multiplicity 1
 C         1.576261         0.712023        -0.023322
 C         0.167182         0.233761        -0.015380
 C        -1.051368         0.741716        -0.367133
 C        -2.153132        -0.230130        -0.287283
 C        -1.851636        -0.751135         1.078366
 C        -0.427000        -1.165256         0.425258
 O         0.610524        -1.995031         1.016638
 C        -1.367987        -1.542922        -0.825919
 O        -2.118891        -2.750125        -0.652189
 H         1.748244         0.934342         0.993044
 H         2.283222        -0.095323        -0.210193
 H         1.609527         1.590413        -0.665644
 H        -1.145572         1.790686        -0.896899
 H        -3.115681         0.004298        -0.764221
 H        -1.827078         0.014813         1.836843
 H        -2.402829        -1.596754         1.604604
 H         0.224459        -2.755140         1.564054
 H        -0.857888        -1.323781        -1.711884
 H        -2.046773        -3.480664        -1.268879
