19
Iteration:  4376charge 0 multiplicity 1
 C         1.562209         0.436890        -0.158300
 C         0.164353         0.097705        -0.274075
 C        -0.764657         0.388347        -1.240352
 C        -1.956910        -0.497000        -0.818837
 C        -1.979401        -0.120030         0.761008
 C        -0.621282        -0.891035         0.671417
 O        -0.018879        -1.486786         1.842187
 C        -1.176534        -1.782465        -0.531285
 O        -1.796186        -3.024038        -0.222899
 H         2.108152        -0.521423        -0.309334
 H         1.712861         1.141739        -0.959631
 H         1.919914         0.827637         0.781481
 H        -0.841169         1.245658        -1.868076
 H        -2.895991        -0.485466        -1.358246
 H        -1.715284         0.950501         0.976688
 H        -2.827833        -0.456023         1.317716
 H         0.631495        -2.184129         1.407659
 H        -0.442761        -2.105411        -1.256650
 H        -2.308763        -2.692753         0.598664
