19
Iteration:   980
 C         1.485853         0.633588         0.081440
 C         0.129064         0.162824        -0.134436
 C        -1.040743         0.821735        -0.459443
 C        -2.148992        -0.196382        -0.201431
 C        -1.724884        -0.739868         1.150056
 C        -0.370998        -1.141148         0.395547
 O         0.542472        -2.060145         0.930130
 C        -1.409650        -1.523158        -0.820869
 O        -2.107308        -2.724579        -0.697069
 H         1.447373         1.249676         1.041832
 H         2.211906        -0.063638         0.229626
 H         1.843992         1.492212        -0.511371
 H        -1.231239         1.852878        -0.740304
 H        -3.203028        -0.080448        -0.392105
 H        -1.711803        -0.030558         1.984911
 H        -2.266177        -1.693083         1.420990
 H         0.495571        -2.128099         1.943335
 H        -0.970542        -1.544707        -1.810030
 H        -1.575729        -3.576021        -0.913615
