19
Iteration:   648charge 0 multiplicity 1
 C         1.479119         0.603249        -0.118889
 C         0.059813         0.188416         0.021142
 C        -1.194858         0.885437        -0.290021
 C        -2.180990        -0.225189         0.018647
 C        -1.620991        -0.882992         1.335694
 C        -0.418852        -1.255265         0.439652
 O         0.558255        -2.203937         0.919851
 C        -1.353141        -1.341902        -0.871880
 O        -2.068491        -2.572390        -1.009167
 H         1.663386         1.414070         0.660855
 H         2.010891        -0.345057         0.025367
 H         1.635544         0.901851        -1.161865
 H        -1.327010         1.829957        -0.935619
 H        -3.231463         0.021190        -0.041909
 H        -1.323511        -0.192329         2.159596
 H        -2.212553        -1.822020         1.676790
 H         0.976329        -1.692114         1.588497
 H        -0.823428        -0.993889        -1.800316
 H        -1.412508        -3.230541        -1.038783
