19
Iteration:  2421
 C         1.544254         0.786157         0.081869
 C         0.095272         0.246342         0.078069
 C        -1.083057         0.879923        -0.089735
 C        -2.101767        -0.235095        -0.064675
 C        -1.648064        -0.985746         1.166621
 C        -0.375587        -1.261166         0.295016
 O         0.623455        -2.158310         0.676897
 C        -1.451783        -1.423590        -0.936737
 O        -2.192525        -2.653400        -0.777391
 H         1.628514         1.896865        -0.027600
 H         2.054037         0.438666         0.993461
 H         2.154890         0.495072        -0.762569
 H        -1.353978         1.982385        -0.311382
 H        -3.159034         0.107899        -0.127763
 H        -1.672925        -0.223161         1.990911
 H        -2.141160        -1.918125         1.642558
 H         0.312405        -2.693525         1.409913
 H        -0.944047        -1.129563        -1.869406
 H        -2.481589        -2.921647        -1.581359
