19
Iteration:  4564charge 0 multiplicity 1
 C         1.590121         0.424204        -0.089126
 C         0.158115         0.026545        -0.245150
 C        -0.649199         0.280400        -1.328297
 C        -1.910929        -0.512634        -0.956848
 C        -2.073045        -0.254523         0.597093
 C        -0.637373        -0.865022         0.668352
 O        -0.018015        -1.444816         1.769169
 C        -1.146868        -1.821379        -0.525049
 O        -1.943671        -2.773020         0.068122
 H         2.292642        -0.297702         0.348189
 H         1.922743         0.581669        -1.125454
 H         1.641576         1.303922         0.586917
 H        -0.477461         0.879531        -2.260089
 H        -2.902176        -0.421019        -1.461956
 H        -2.206695         0.751868         0.930455
 H        -2.850398        -0.990864         1.128973
 H         0.897723        -0.943060         1.720782
 H        -0.421486        -2.170560        -1.287293
 H        -1.456353        -3.396071         0.728292
