19
Iteration:  4095
 C         1.621540         0.477597        -0.261812
 C         0.186349         0.117735        -0.185691
 C        -0.756684         0.490478        -1.093353
 C        -1.952730        -0.428770        -0.830403
 C        -2.042612        -0.411685         0.930852
 C        -0.591454        -0.924493         0.649463
 O         0.079954        -1.572799         1.792676
 C        -1.157109        -1.774996        -0.626822
 O        -1.963251        -2.858070        -0.219000
 H         2.218294        -0.246201         0.248250
 H         1.939890         0.386596        -1.297822
 H         1.924341         1.506448         0.126329
 H        -0.812261         1.546665        -1.564057
 H        -2.898425        -0.293567        -1.327666
 H        -2.248276         0.643821         1.314368
 H        -2.760948        -1.117515         1.233351
 H         0.978521        -1.657368         1.644027
 H        -0.462075        -2.029310        -1.351312
 H        -2.402936        -3.257105        -1.028593
