19
Iteration:  3152
 C         1.559926         0.576981         0.024963
 C         0.082440         0.226126        -0.081878
 C        -1.069496         0.875831        -0.438923
 C        -2.169461        -0.277519        -0.237665
 C        -1.785835        -0.668360         1.236586
 C        -0.521626        -1.127948         0.424184
 O         0.439559        -2.044960         1.003402
 C        -1.433704        -1.440117        -0.785277
 O        -1.779469        -2.826541        -0.710781
 H         1.856039         1.684624        -0.144247
 H         2.065475         0.140350         0.937894
 H         2.184496         0.070691        -0.753637
 H        -1.325940         1.975607        -0.616562
 H        -3.232453        -0.210259        -0.611948
 H        -1.611409         0.266686         1.845258
 H        -2.187216        -1.540469         1.711436
 H         0.201206        -2.945540         0.582654
 H        -0.939534        -1.327185        -1.879094
 H        -2.473380        -3.015320        -1.326419
