19
Iteration:  2451
 C         1.449428         0.628028         0.207810
 C         0.035358         0.199878        -0.012003
 C        -1.101928         0.888157        -0.296054
 C        -2.121935        -0.186439         0.002792
 C        -1.582520        -0.933811         1.310769
 C        -0.403626        -1.258646         0.368522
 O         0.615115        -2.144261         0.535893
 C        -1.454332        -1.387553        -0.801207
 O        -2.089927        -2.646351        -0.860472
 H         1.578493         1.580088        -0.264660
 H         1.588471         0.708014         1.337668
 H         2.157525        -0.145568        -0.155461
 H        -1.243238         1.940642        -0.605649
 H        -3.157812         0.115557        -0.033982
 H        -1.517586        -0.278595         2.151435
 H        -2.027438        -1.856853         1.590200
 H         1.014414        -1.927856         1.473345
 H        -1.001035        -1.039745        -1.784212
 H        -2.598307        -2.713990        -1.776369
