19
Iteration:  4195
 C         1.627765         0.602205        -0.071211
 C         0.152917         0.121087        -0.194754
 C        -0.660516         0.360925        -1.234141
 C        -1.944430        -0.394256        -0.741297
 C        -1.991618        -0.382329         0.820242
 C        -0.558917        -0.959504         0.614859
 O         0.197878        -1.504750         1.597900
 C        -1.311368        -1.802852        -0.562509
 O        -2.033974        -2.869961        -0.121537
 H         1.977348         0.749476        -1.060739
 H         1.806335         1.610061         0.334477
 H         2.360652        -0.094782         0.426442
 H        -0.763722         1.122175        -1.992716
 H        -2.869931        -0.216963        -1.337772
 H        -2.091442         0.413842         1.510558
 H        -2.745591        -1.255648         1.019509
 H        -0.377499        -2.137379         2.124740
 H        -0.679698        -2.024063        -1.350826
 H        -1.967450        -3.568631        -0.715467
