19
Iteration:   151charge 0 multiplicity 1
 C         1.454001         0.669445        -0.173410
 C         0.040850         0.331813         0.277765
 C        -1.076478         0.907220        -0.042878
 C        -2.129088        -0.227848         0.016560
 C        -1.755263        -1.083508         1.272797
 C        -0.380769        -1.230070         0.450248
 O         0.582339        -2.169653         0.641951
 C        -1.326258        -1.303877        -0.861532
 O        -2.043243        -2.613180        -0.922010
 H         1.576213         0.816298        -1.248800
 H         2.066494         1.588723         0.170843
 H         2.300903        -0.114906         0.038871
 H        -1.201640         1.953860        -0.187837
 H        -3.114792         0.039196        -0.340572
 H        -1.817046        -0.619676         2.301134
 H        -2.135008        -2.161334         1.217029
 H         0.241899        -2.950586         1.031102
 H        -0.943013        -0.992088        -1.880203
 H        -2.479353        -2.654480        -1.769672
