19
Iteration:  1055charge 0 multiplicity 1
 C         1.501056         0.743649         0.055901
 C         0.152780         0.192125        -0.056798
 C        -0.997965         0.875852        -0.412109
 C        -2.086094        -0.186391        -0.275937
 C        -1.792086        -0.809770         1.097693
 C        -0.438761        -1.153620         0.378448
 O         0.449116        -2.147497         0.912930
 C        -1.349188        -1.529339        -0.855564
 O        -2.097259        -2.771202        -0.603775
 H         2.288496         0.012748         0.436747
 H         1.987688         0.928378        -0.978329
 H         1.488182         1.702102         0.619513
 H        -0.985775         1.913318        -0.786806
 H        -3.069802         0.120627        -0.606372
 H        -1.797845        -0.111800         1.976930
 H        -2.505664        -1.685519         1.328357
 H         0.859749        -1.765128         1.654679
 H        -0.924122        -1.662493        -1.863035
 H        -1.813432        -3.216728         0.207846
