19
Iteration:  3642charge 0 multiplicity 1
 C         1.597193         0.572247        -0.189058
 C         0.087486         0.212354        -0.052924
 C        -0.879634         0.718847        -0.790501
 C        -2.054695        -0.333264        -0.537811
 C        -1.922599        -0.496251         1.011634
 C        -0.586637        -1.047421         0.656886
 O         0.344871        -1.855255         1.363838
 C        -1.248965        -1.679345        -0.628579
 O        -2.018380        -2.799774        -0.481493
 H         2.282739         0.392607         0.700424
 H         2.254289         0.269426        -1.087597
 H         1.628447         1.657164        -0.239623
 H        -0.910626         1.294327        -1.690894
 H        -2.938923        -0.263909        -1.119345
 H        -2.051747         0.348733         1.697103
 H        -2.607194        -1.257928         1.330438
 H         0.210176        -2.825381         1.053291
 H        -0.528081        -1.728412        -1.557237
 H        -1.437649        -3.627938        -0.690413
