19
Iteration:  4111
 C         1.628210         0.393972        -0.224998
 C         0.157630         0.027396        -0.195194
 C        -0.737903         0.450527        -1.055367
 C        -2.006811        -0.304050        -0.686825
 C        -2.093644        -0.441792         0.803106
 C        -0.608666        -0.955669         0.646328
 O         0.044988        -1.484950         1.690095
 C        -1.177058        -1.715002        -0.626498
 O        -1.831990        -2.846659        -0.161133
 H         2.408900        -0.400018         0.056249
 H         1.914554         0.841913        -1.205305
 H         1.808295         1.226046         0.476021
 H        -0.617455         0.988771        -1.946925
 H        -2.875582        -0.197321        -1.401670
 H        -2.252394         0.358459         1.487165
 H        -2.698336        -1.311406         1.232384
 H         0.943293        -1.472069         1.434830
 H        -0.424525        -1.903318        -1.510633
 H        -2.524894        -3.145974        -0.848710
