19
Iteration:   108
 C         1.407742         0.651651         0.125387
 C         0.038787         0.212038         0.071538
 C        -1.069917         0.816852        -0.158482
 C        -2.089469        -0.268291         0.016413
 C        -1.485790        -1.005007         1.330665
 C        -0.354806        -1.273326         0.296402
 O         0.763911        -2.024045         0.742679
 C        -1.520059        -1.371919        -0.887693
 O        -2.348515        -2.519838        -1.035404
 H         1.936549         0.187452        -0.688377
 H         1.538959         1.795515         0.148094
 H         2.088509         0.279075         1.033475
 H        -1.323296         1.841905        -0.120132
 H        -3.162029        -0.178038        -0.092721
 H        -1.171644        -0.408432         2.233325
 H        -2.170933        -1.903712         1.520898
 H         0.539409        -2.917440         0.590018
 H        -1.191850        -0.883673        -1.843452
 H        -1.811028        -3.111715        -1.516513
