19
Iteration:   576charge 0 multiplicity 1
 C         1.485939         0.733086         0.149866
 C         0.086889         0.191240        -0.010424
 C        -1.030441         0.735803        -0.341955
 C        -2.159489        -0.205309        -0.123085
 C        -1.633487        -0.850658         1.204654
 C        -0.393674        -1.150025         0.394629
 O         0.576684        -2.100262         0.715351
 C        -1.381000        -1.451498        -0.813911
 O        -2.140783        -2.634218        -0.684602
 H         1.253525         1.785574         0.223568
 H         1.956386         0.244856         0.981476
 H         1.981004         0.396495        -0.767863
 H        -1.157417         1.840760        -0.616184
 H        -3.222847        -0.151569        -0.449758
 H        -1.491273        -0.189134         2.080811
 H        -2.066862        -1.797891         1.433416
 H         0.176509        -2.973067         0.592569
 H        -0.978265        -1.303949        -1.821837
 H        -2.078551        -2.993219        -1.540823
