19
Iteration:  2167charge 0 multiplicity 1
 C         1.523004         0.655263         0.073965
 C         0.054886         0.237724        -0.024319
 C        -1.027989         0.939815        -0.302136
 C        -2.176735        -0.116893        -0.127384
 C        -1.778734        -0.905223         1.194979
 C        -0.459549        -1.179694         0.316920
 O         0.610939        -2.152342         0.775350
 C        -1.438633        -1.362899        -0.891243
 O        -1.950000        -2.790663        -0.638564
 H         2.056224         0.494584        -0.838941
 H         1.674450         1.744516         0.429160
 H         2.144555         0.056224         0.791985
 H        -1.049030         2.054023        -0.617586
 H        -3.224625         0.182999        -0.248293
 H        -1.651784        -0.476046         2.257693
 H        -2.211953        -1.934247         1.245304
 H         0.168826        -2.935792         1.231824
 H        -1.060607        -1.182964        -1.899655
 H        -2.727492        -2.997638        -1.309748
