19
Iteration:  4227charge 0 multiplicity 1
 C         1.537588         0.654730        -0.060948
 C         0.167848         0.105608        -0.292588
 C        -0.847298         0.527256        -1.154055
 C        -1.888508        -0.516324        -0.804931
 C        -1.912756        -0.241500         0.677070
 C        -0.454816        -1.024153         0.618385
 O         0.191707        -1.727984         1.696210
 C        -1.165396        -1.894299        -0.557166
 O        -2.102543        -2.783865        -0.101012
 H         1.708786         1.420460        -0.748277
 H         1.582737         0.988865         0.980541
 H         2.278835        -0.159566        -0.231043
 H        -1.040746         1.316263        -1.859045
 H        -2.816230        -0.484193        -1.412293
 H        -1.826945         0.749855         1.032776
 H        -2.782769        -0.735300         1.219394
 H        -0.034732        -1.191879         2.436858
 H        -0.546455        -2.270884        -1.339976
 H        -2.150721        -3.645654        -0.559229
