19
Iteration:  2820
 C         1.515916         0.703815        -0.002332
 C         0.103844         0.187081         0.085172
 C        -1.050677         0.804481        -0.314602
 C        -2.143469        -0.179996         0.010475
 C        -1.658650        -0.910912         1.317160
 C        -0.468257        -1.193010         0.395440
 O         0.380128        -2.200157         0.830185
 C        -1.505754        -1.335962        -0.827876
 O        -1.863762        -2.703722        -1.062188
 H         1.994573         0.304264        -0.909524
 H         1.258858         1.831255        -0.043610
 H         2.151946         0.555844         0.959852
 H        -0.960605         1.833138        -0.389752
 H        -3.189864         0.184214        -0.152688
 H        -1.603621        -0.290049         2.222279
 H        -2.299165        -1.815233         1.580436
 H         1.210757        -1.814359         0.790495
 H        -1.170089        -0.925815        -1.842283
 H        -2.131676        -3.183665        -0.355932
