19
Iteration:  4837
 C         1.615909         0.370501        -0.055665
 C         0.228294        -0.082007        -0.378731
 C        -0.661238         0.167919        -1.449348
 C        -1.884601        -0.559474        -0.942916
 C        -2.042955        -0.095460         0.479547
 C        -0.646819        -0.738208         0.657310
 O        -0.214795        -1.177097         1.853742
 C        -1.125805        -1.906113        -0.390248
 O        -1.882066        -2.867262         0.233290
 H         2.380013        -0.189024        -0.693575
 H         1.829578         1.454428        -0.192475
 H         1.909013        -0.100566         0.926389
 H        -0.447135         0.469913        -2.577956
 H        -2.699194        -0.553176        -1.627498
 H        -1.987424         0.934844         0.446056
 H        -2.942692        -0.442908         1.043133
 H         0.616001        -1.653003         1.827763
 H        -0.292737        -2.187305        -1.134965
 H        -1.590446        -3.754064        -0.276842
