19
Iteration:  3089charge 0 multiplicity 1
 C         1.544207         0.725772        -0.034148
 C         0.119796         0.214392         0.022491
 C        -1.052368         0.801899        -0.356737
 C        -2.111265        -0.282920        -0.227766
 C        -1.802145        -0.796883         1.149761
 C        -0.393605        -1.175942         0.478947
 O         0.475785        -2.050416         0.905299
 C        -1.262217        -1.538695        -0.816295
 O        -2.070613        -2.661789        -0.679624
 H         1.799682         0.663613        -1.140639
 H         1.543928         1.682818         0.487354
 H         2.157893         0.022749         0.557839
 H        -1.319569         1.858677        -0.684348
 H        -3.149902        -0.128188        -0.659462
 H        -1.862710         0.010647         1.973005
 H        -2.302990        -1.696837         1.447227
 H        -0.030004        -2.876004         1.162924
 H        -0.721936        -1.375171        -1.700119
 H        -2.060720        -3.001456        -1.520695
