19
Iteration:  2487
 C         1.456950         0.622307         0.196956
 C         0.058037         0.256638         0.110019
 C        -1.122643         0.921998        -0.238516
 C        -2.162705        -0.212440        -0.064116
 C        -1.611312        -0.895928         1.285362
 C        -0.417682        -1.173256         0.365380
 O         0.495804        -2.235894         0.503047
 C        -1.415817        -1.391984        -0.778569
 O        -1.969152        -2.702186        -0.827901
 H         1.940135         1.303862        -0.608265
 H         1.757314         1.199934         1.098202
 H         2.209489        -0.160793         0.127223
 H        -1.264425         2.039766        -0.379064
 H        -3.239502         0.103434        -0.156137
 H        -1.583073        -0.155142         2.128327
 H        -2.159463        -1.894826         1.564335
 H         1.498438        -1.948849         0.462552
 H        -1.246987        -1.167398        -1.865186
 H        -2.717262        -2.715216        -1.577916
