19
Iteration:  2033
 C         1.534444         0.613195         0.072433
 C         0.091162         0.257394         0.059785
 C        -1.095185         0.814732        -0.429592
 C        -2.171909        -0.204578        -0.098415
 C        -1.734945        -0.810038         1.249003
 C        -0.434858        -1.120104         0.424882
 O         0.554944        -2.106192         0.682592
 C        -1.353876        -1.454144        -0.756747
 O        -2.033622        -2.668303        -0.728976
 H         1.734134         1.455225         0.798819
 H         2.040667        -0.287222         0.335908
 H         1.762805         0.986535        -0.948539
 H        -1.197555         1.614950        -1.212872
 H        -3.211801        -0.034002        -0.467952
 H        -1.528616        -0.101739         2.036247
 H        -2.348907        -1.689254         1.439456
 H         0.100978        -2.826201         1.244280
 H        -1.123755        -1.170478        -1.775296
 H        -1.544550        -3.571751        -0.844033
