19
Iteration:  1654
 C         1.548653         0.550590        -0.107501
 C         0.075508         0.206508        -0.054980
 C        -1.017528         0.746080        -0.654555
 C        -2.143363        -0.242161        -0.245171
 C        -1.829264        -0.774189         1.250022
 C        -0.457679        -1.097792         0.622683
 O         0.488232        -2.039335         1.207008
 C        -1.287059        -1.531342        -0.778619
 O        -2.095498        -2.619119        -0.861322
 H         2.046836        -0.039722         0.612172
 H         2.104728         0.333519        -1.101222
 H         1.615688         1.613435         0.116627
 H        -1.100548         1.601124        -1.336470
 H        -3.206895        -0.119087        -0.422888
 H        -2.035758        -0.020107         1.936244
 H        -2.309208        -1.745652         1.462070
 H         1.206960        -1.538523         1.672374
 H        -0.651956        -1.368838        -1.632993
 H        -1.593995        -3.336927        -1.090802
