19
Iteration:  1579charge 0 multiplicity 1
 C         1.572930         0.531492        -0.117546
 C         0.117461         0.247301        -0.016303
 C        -1.018639         0.743527        -0.660892
 C        -2.190556        -0.270925        -0.275000
 C        -1.877167        -0.676696         1.209171
 C        -0.462329        -1.027515         0.607211
 O         0.366555        -2.085345         1.078445
 C        -1.286292        -1.495282        -0.762817
 O        -1.920200        -2.679383        -0.692365
 H         1.982179        -0.165042        -0.869119
 H         1.755026         1.554096        -0.634469
 H         2.082152         0.543897         0.833434
 H        -1.096604         1.621552        -1.405045
 H        -3.194438        -0.131935        -0.703271
 H        -1.780234         0.002763         2.033680
 H        -2.536986        -1.541460         1.494999
 H         0.311243        -2.330329         2.033980
 H        -0.666130        -1.370664        -1.656743
 H        -1.227993        -3.430935        -0.980889
