19
Iteration:  1868charge 0 multiplicity 1
 C         1.472944         0.502523        -0.188664
 C         0.087112         0.206452         0.048296
 C        -1.067116         0.888516        -0.384259
 C        -2.167847        -0.123708        -0.213043
 C        -1.781164        -0.778702         1.194691
 C        -0.497604        -1.121163         0.507337
 O         0.435410        -2.058215         1.058947
 C        -1.346260        -1.422223        -0.847086
 O        -1.751855        -2.802190        -0.713971
 H         1.801961         0.361280        -1.312515
 H         1.726690         1.525624        -0.118360
 H         2.216752        -0.043213         0.432684
 H        -1.025949         1.857368        -0.874285
 H        -3.226192         0.075633        -0.283026
 H        -1.746145        -0.063589         2.014937
 H        -2.594150        -1.562197         1.322023
 H        -0.091162        -2.840706         1.061748
 H        -0.840171        -1.231744        -1.810940
 H        -2.507524        -2.996925        -1.223439
