19
Iteration:   884
 C         1.498766         0.556457        -0.142418
 C         0.024261         0.294332        -0.020861
 C        -1.097923         0.871132        -0.335277
 C        -2.148156        -0.206692        -0.087946
 C        -1.652184        -0.717345         1.286603
 C        -0.442627        -1.085589         0.439880
 O         0.368005        -2.132168         0.971226
 C        -1.360499        -1.447840        -0.772876
 O        -1.818599        -2.801338        -0.809372
 H         1.843003         1.039303        -1.135011
 H         1.714085         1.142584         0.773758
 H         2.246110        -0.275794        -0.054464
 H        -1.305139         1.683951        -1.075653
 H        -3.150474         0.070317        -0.396873
 H        -1.504359        -0.025349         2.050962
 H        -2.149504        -1.636744         1.649953
 H        -0.307851        -2.878125         0.857336
 H        -0.895222        -1.199934        -1.748436
 H        -2.095811        -3.021963        -1.782996
