19
Iteration:  2874charge 0 multiplicity 1
 C         1.478268         0.650791        -0.009450
 C         0.057218         0.204728         0.198895
 C        -1.113412         0.714185        -0.255289
 C        -2.110489        -0.269475        -0.151481
 C        -1.695638        -0.957740         1.179415
 C        -0.372685        -1.147837         0.465727
 O         0.563157        -2.060356         0.919664
 C        -1.287002        -1.440316        -0.912881
 O        -2.159676        -2.573141        -1.006970
 H         1.411604         1.428590        -0.816279
 H         2.116374         1.009135         0.903026
 H         1.940809        -0.340625        -0.426601
 H        -1.244905         1.795062        -0.361677
 H        -3.164231        -0.007057        -0.464374
 H        -1.735086        -0.305343         2.065783
 H        -2.076678        -1.963774         1.424385
 H         1.286161        -1.553520         1.194242
 H        -0.921887        -1.203217        -2.000493
 H        -2.505158        -2.644556        -0.185989
