19
Iteration:  2521charge 0 multiplicity 1
 C         1.538968         0.807838         0.008602
 C         0.123456         0.193871         0.089187
 C        -1.030231         0.872599        -0.003051
 C        -2.159909        -0.188303        -0.077433
 C        -1.708875        -1.069948         1.135265
 C        -0.398611        -1.190460         0.327721
 O         0.467008        -2.254966         0.741985
 C        -1.475644        -1.372479        -0.910129
 O        -1.984152        -2.633954        -0.767952
 H         1.598097         1.496681        -0.912149
 H         1.612764         1.471918         0.877922
 H         2.386390         0.116056         0.076467
 H        -1.142329         1.880276        -0.220826
 H        -3.200115         0.172722        -0.194652
 H        -1.676756        -0.474249         2.115515
 H        -2.327474        -2.017188         1.283408
 H         1.355747        -2.257910         0.221775
 H        -1.376186        -0.997034        -1.959177
 H        -2.583435        -2.682465        -1.588013
