19
Iteration:  2255
 C         1.451442         0.761432         0.107893
 C         0.097568         0.213024        -0.060693
 C        -1.047457         0.835676        -0.333012
 C        -2.115361        -0.274281        -0.086655
 C        -1.611506        -0.939587         1.283446
 C        -0.416717        -1.225615         0.325692
 O         0.580630        -2.135936         0.770278
 C        -1.416681        -1.355595        -0.835752
 O        -2.069815        -2.642561        -0.759484
 H         1.994099         0.077319         0.736749
 H         1.939812         0.783650        -0.945248
 H         1.328396         1.757051         0.598636
 H        -1.302459         1.904462        -0.340799
 H        -3.113744         0.034263        -0.274226
 H        -1.346074        -0.375227         2.235280
 H        -2.112509        -1.913848         1.603668
 H         0.000992        -2.983743         0.980730
 H        -1.160544        -1.062609        -1.864879
 H        -2.646315        -2.811728        -1.596449
