19
Iteration:  4443
 C         1.595928         0.528528        -0.090517
 C         0.155079         0.034672        -0.210912
 C        -0.778908         0.331135        -1.198239
 C        -1.948389        -0.556777        -0.867770
 C        -1.990216        -0.244506         0.690504
 C        -0.560423        -0.900626         0.668083
 O         0.134403        -1.312164         1.777323
 C        -1.135528        -1.890878        -0.550980
 O        -2.030515        -2.940334        -0.115210
 H         1.851826         1.190128        -0.954259
 H         1.691059         0.943719         0.938913
 H         2.310648        -0.316809        -0.237821
 H        -0.659943         0.997811        -2.040817
 H        -2.745679        -0.465313        -1.659407
 H        -1.817837         0.826539         0.893745
 H        -2.742007        -0.796661         1.345428
 H         0.794383        -1.898303         1.585669
 H        -0.456317        -2.278177        -1.386067
 H        -2.906998        -2.640509        -0.199447
