19
Iteration:  2919
 C         1.474742         0.641098         0.041295
 C         0.099789         0.203735         0.049779
 C        -1.082225         0.759284        -0.337915
 C        -2.176774        -0.214648        -0.046151
 C        -1.682253        -0.730320         1.304021
 C        -0.426162        -1.145580         0.419855
 O         0.401732        -2.125107         0.813320
 C        -1.395477        -1.475302        -0.821916
 O        -1.904585        -2.722607        -1.044405
 H         1.519776         1.610777         0.609231
 H         1.975850        -0.245218         0.608081
 H         1.941391         0.655792        -1.020490
 H        -1.334239         1.898809        -0.517362
 H        -3.227057         0.164464        -0.109288
 H        -1.597136        -0.078274         2.156977
 H        -2.228101        -1.649535         1.646460
 H         1.267053        -1.893257         1.103002
 H        -0.746247        -1.166330        -1.705775
 H        -2.227772        -3.065528        -0.277069
