19
Iteration:   921
 C         1.517613         0.641930        -0.172288
 C         0.097526         0.172487         0.000046
 C        -1.046402         0.807967        -0.336447
 C        -2.127074        -0.229614        -0.188485
 C        -1.824520        -0.847344         1.231035
 C        -0.402371        -1.196370         0.530041
 O         0.668742        -1.944562         1.089568
 C        -1.358583        -1.487449        -0.804891
 O        -2.181419        -2.649059        -0.863095
 H         1.505031         1.683189        -0.194497
 H         2.075667         0.457958         0.909268
 H         2.056850         0.017007        -0.860314
 H        -1.182986         1.521268        -1.107208
 H        -3.138381        -0.104720        -0.663222
 H        -1.874883        -0.025684         2.042486
 H        -2.485997        -1.702297         1.423709
 H         0.507851        -2.898425         1.036987
 H        -0.810005        -1.364824        -1.753512
 H        -1.684579        -3.279991        -1.432794
