19
Iteration:  2613
 C         1.455898         0.518489        -0.008966
 C         0.032778         0.281577         0.115352
 C        -1.157866         0.956816        -0.048771
 C        -2.146857        -0.169779         0.008366
 C        -1.687411        -1.065008         1.265474
 C        -0.365582        -1.146766         0.398416
 O         0.581591        -2.094956         0.624084
 C        -1.390339        -1.362050        -0.869729
 O        -1.974111        -2.618927        -0.928206
 H         1.702186         1.452359        -0.420151
 H         2.043214         0.528332         0.909469
 H         1.969077        -0.217459        -0.643900
 H        -1.237662         1.995700        -0.540014
 H        -3.221578         0.040806         0.037531
 H        -1.645473        -0.746914         2.349978
 H        -2.153455        -2.054499         1.271833
 H         0.215032        -2.670983         1.354558
 H        -1.061190        -1.025815        -1.822657
 H        -2.171754        -2.896426        -1.836562
