19
Iteration:  2932
 C         1.475937         0.628587         0.064193
 C         0.035665         0.220499         0.092082
 C        -1.094216         0.836376        -0.305024
 C        -2.153216        -0.278681        -0.115008
 C        -1.645239        -0.727637         1.298805
 C        -0.458882        -1.144502         0.446857
 O         0.335743        -2.219644         0.767947
 C        -1.359535        -1.402814        -0.825981
 O        -1.880353        -2.718757        -0.987633
 H         1.746475         1.532123         0.728757
 H         2.343570        -0.092438         0.336040
 H         1.733997         1.054256        -0.971229
 H        -1.141208         1.748936        -0.926861
 H        -3.176315        -0.135113        -0.386755
 H        -1.377562         0.130633         1.871951
 H        -2.195278        -1.516355         1.922896
 H         1.247194        -1.842558         1.056761
 H        -1.137786        -1.099983        -1.821648
 H        -1.904187        -3.223172        -0.056612
