19
Iteration:  1419charge 0 multiplicity 1
 C         1.532671         0.612183        -0.081493
 C         0.079095         0.234420        -0.077261
 C        -1.040633         0.767500        -0.581484
 C        -2.105731        -0.269236        -0.396650
 C        -1.772915        -0.712018         1.121277
 C        -0.409313        -1.070745         0.495709
 O         0.309045        -1.987322         1.268413
 C        -1.290829        -1.582121        -0.786638
 O        -2.036004        -2.727285        -0.634401
 H         1.775241         1.730785         0.088652
 H         2.063391         0.045052         0.655676
 H         2.054308         0.177085        -1.016331
 H        -1.126384         1.661971        -1.233059
 H        -3.030771         0.092443        -0.833822
 H        -1.689911         0.054311         1.949843
 H        -2.205159        -1.687946         1.438309
 H         1.162307        -2.322892         1.030880
 H        -0.830673        -1.366137        -1.779784
 H        -1.424800        -3.571336        -0.629313
