19
Iteration:  4337
 C         1.679523         0.511325        -0.176882
 C         0.226002         0.152948        -0.237625
 C        -0.705175         0.353789        -1.225248
 C        -1.950508        -0.413405        -0.814080
 C        -2.041500        -0.367489         0.841325
 C        -0.613530        -0.885471         0.622524
 O        -0.030435        -1.445790         1.766325
 C        -1.245126        -1.763096        -0.656860
 O        -1.935758        -2.978774        -0.132347
 H         2.133501         0.001047         0.696064
 H         2.293889         0.159184        -1.040657
 H         1.887690         1.608031        -0.025891
 H        -0.723533         1.196801        -1.925932
 H        -2.777568        -0.255211        -1.563315
 H        -2.246991         0.538522         1.314664
 H        -2.646233        -1.224379         1.336556
 H         0.678777        -2.009080         1.620803
 H        -0.486587        -2.053803        -1.453558
 H        -1.826094        -3.087968         0.810696
