19
Iteration:   806charge 0 multiplicity 1
 C         1.475367         0.707502         0.091120
 C         0.099571         0.223259        -0.082306
 C        -1.067025         0.797802        -0.378678
 C        -2.121797        -0.289388        -0.190496
 C        -1.620676        -0.855184         1.254984
 C        -0.365716        -1.161713         0.382664
 O         0.670687        -2.037299         0.824957
 C        -1.409548        -1.473402        -0.825731
 O        -2.215853        -2.672373        -0.646176
 H         2.195448        -0.091871        -0.239735
 H         1.840693         1.444329        -0.544407
 H         1.865726         0.922377         1.119335
 H        -1.305184         1.834155        -0.450528
 H        -3.154747        -0.105703        -0.478026
 H        -1.730142        -0.118707         1.991070
 H        -2.191843        -1.719862         1.419379
 H         0.187748        -2.858617         0.842547
 H        -1.131233        -1.459403        -1.894404
 H        -2.688743        -2.740992        -1.518468
