19
Iteration:  3697charge 0 multiplicity 1
 C         1.490747         0.577373         0.026489
 C         0.150434         0.155014        -0.255344
 C        -0.936949         0.661686        -0.936903
 C        -2.087583        -0.284182        -0.499975
 C        -1.828627        -0.508108         1.047697
 C        -0.459173        -1.026110         0.497376
 O         0.296953        -1.813938         1.333086
 C        -1.209244        -1.708373        -0.688009
 O        -1.939058        -2.872211        -0.358054
 H         2.204846        -0.186796        -0.405295
 H         1.925290         1.576830        -0.289980
 H         1.687390         0.479919         1.098522
 H        -0.941679         1.523407        -1.635606
 H        -3.036997        -0.163775        -0.945795
 H        -1.874795         0.383687         1.649689
 H        -2.477121        -1.323400         1.426060
 H        -0.311636        -1.848493         2.164438
 H        -0.732130        -1.764294        -1.735070
 H        -2.559011        -2.972722        -1.085637
