19
Iteration:  3664
 C         1.539538         0.646201        -0.139053
 C         0.130585         0.196637        -0.080083
 C        -0.850791         0.600822        -0.777133
 C        -2.064096        -0.280945        -0.563342
 C        -1.944490        -0.522748         0.991579
 C        -0.451835        -1.056191         0.532428
 O         0.321988        -1.821208         1.401519
 C        -1.240374        -1.680198        -0.736731
 O        -2.013467        -2.844771        -0.385619
 H         2.176540        -0.164153         0.327217
 H         1.924966         0.829922        -1.270081
 H         1.859268         1.537878         0.417949
 H        -0.833049         1.600945        -1.206490
 H        -3.022420        -0.156168        -0.966140
 H        -2.003558         0.419490         1.559350
 H        -2.631721        -1.218365         1.482711
 H        -0.186242        -2.604338         1.639672
 H        -0.772247        -1.803563        -1.816908
 H        -1.830921        -3.489749        -1.007627
