19
Iteration:   503charge 0 multiplicity 1
 C         1.583928         0.666310         0.059533
 C         0.096128         0.212451         0.008731
 C        -1.144856         0.878248        -0.251676
 C        -2.197269        -0.200565        -0.134466
 C        -1.808061        -0.879572         1.257365
 C        -0.390250        -1.188029         0.409257
 O         0.587117        -2.155099         0.614233
 C        -1.395721        -1.396684        -0.808273
 O        -1.901417        -2.675754        -0.699421
 H         1.917525         0.876493        -0.917143
 H         1.604803         1.519419         0.778531
 H         1.963345        -0.231013         0.543089
 H        -1.217380         1.879861        -0.739023
 H        -3.262636         0.057432        -0.342661
 H        -1.629561        -0.179130         2.130011
 H        -2.462725        -1.803818         1.394219
 H         0.161112        -3.017731         0.898857
 H        -1.022256        -1.110830        -1.809480
 H        -2.894475        -2.668812        -0.942299
