19
Iteration:  2344charge 0 multiplicity 1
 C         1.489747         0.517103        -0.051473
 C         0.098749         0.295783         0.052924
 C        -1.143163         0.911351        -0.199595
 C        -2.175250        -0.276005         0.004677
 C        -1.587622        -0.861845         1.334442
 C        -0.429160        -1.115251         0.450742
 O         0.463819        -2.092136         0.807225
 C        -1.492210        -1.412131        -0.819793
 O        -1.892206        -2.699405        -0.973862
 H         1.997008         1.252633         0.600592
 H         2.153861        -0.392038         0.005210
 H         1.653476         0.950065        -1.041123
 H        -1.471960         1.929835        -0.362521
 H        -3.196307         0.058224         0.079922
 H        -1.401632        -0.274051         2.279103
 H        -2.101306        -1.900918         1.538751
 H         0.264162        -2.891072         0.161390
 H        -1.150863        -0.909128        -1.733785
 H        -1.982618        -2.730619        -1.998579
