19
Iteration:  3290
 C         1.473372         0.652978         0.070495
 C         0.061896         0.187720        -0.005441
 C        -0.987947         0.782476        -0.531701
 C        -2.100674        -0.141880        -0.349532
 C        -1.788427        -0.656484         1.141317
 C        -0.491313        -1.164713         0.397430
 O         0.540993        -1.972554         0.932936
 C        -1.362066        -1.622380        -0.738917
 O        -2.030596        -2.800102        -0.592935
 H         1.963349        -0.295656        -0.154007
 H         1.658741         1.315058        -0.823413
 H         1.807670         1.171773         1.008143
 H        -0.890915         1.845547        -0.844935
 H        -3.157866         0.132848        -0.526801
 H        -1.615776         0.044001         1.958284
 H        -2.328297        -1.538908         1.612938
 H         0.104234        -2.606495         1.492332
 H        -0.722853        -1.608778        -1.583562
 H        -1.604084        -3.412569        -1.258936
