19
Iteration:  1733charge 0 multiplicity 1
 C         1.512542         0.713398         0.201103
 C         0.086894         0.231480         0.014541
 C        -0.933713         0.746925        -0.625326
 C        -2.135176        -0.254424        -0.332523
 C        -1.794465        -0.789810         1.125275
 C        -0.407006        -1.101402         0.382378
 O         0.454556        -2.153172         0.766465
 C        -1.302827        -1.468960        -0.824864
 O        -2.142477        -2.672257        -0.462050
 H         1.462504         1.669069         0.666405
 H         2.092311        -0.112043         0.672992
 H         1.961758         0.889103        -0.771482
 H        -1.058100         1.683169        -1.178157
 H        -3.167388        -0.259375        -0.759832
 H        -1.511533        -0.135150         1.963623
 H        -2.292440        -1.662907         1.431028
 H         0.550702        -2.170002         1.779500
 H        -0.902436        -1.330295        -1.829026
 H        -1.411517        -3.157609        -0.016955
