19
Iteration:  3252charge 0 multiplicity 1
 C         1.486848         0.746118         0.057427
 C         0.112698         0.238426        -0.081345
 C        -1.034621         0.713871        -0.652215
 C        -2.194627        -0.307950        -0.221864
 C        -1.671003        -0.723800         1.230357
 C        -0.387552        -1.154191         0.440559
 O         0.477269        -2.062288         1.025057
 C        -1.310378        -1.523365        -0.754594
 O        -2.111883        -2.665099        -0.717898
 H         1.972885         0.183659         0.924210
 H         2.129515         0.684659        -0.833225
 H         1.677462         1.769056         0.449328
 H        -1.271896         1.577479        -1.221574
 H        -3.137074         0.163905        -0.495667
 H        -1.506725         0.093341         1.984958
 H        -2.195525        -1.619550         1.510553
 H        -0.039580        -2.949367         1.272867
 H        -0.930704        -1.449072        -1.875412
 H        -1.524164        -3.546654        -0.727862
