19
Iteration:  3504charge 0 multiplicity 1
 C         1.507924         0.741829         0.051457
 C         0.175649         0.159362        -0.199364
 C        -0.910961         0.751916        -0.704011
 C        -2.038059        -0.217111        -0.450575
 C        -1.859528        -0.547623         1.082807
 C        -0.508344        -1.131583         0.457923
 O         0.260415        -2.032937         1.191971
 C        -1.300193        -1.607581        -0.766462
 O        -1.909225        -2.947939        -0.446565
 H         2.353162         0.196754        -0.422392
 H         1.384475         1.718376        -0.365398
 H         1.840235         0.816437         1.121670
 H        -0.967818         1.669366        -1.185872
 H        -3.000829         0.051393        -0.835771
 H        -1.846257         0.217560         1.827816
 H        -2.678354        -1.349671         1.263132
 H         0.902707        -1.610016         1.727176
 H        -0.676782        -1.672176        -1.622751
 H        -2.686985        -3.014590        -0.963141
