19
Iteration:  2463
 C         1.509098         0.611905         0.213729
 C         0.079154         0.238009        -0.000980
 C        -1.146666         0.781169        -0.318864
 C        -2.194905        -0.247365         0.080943
 C        -1.648847        -0.923242         1.359870
 C        -0.444072        -1.163951         0.371938
 O         0.589070        -2.176245         0.503529
 C        -1.390245        -1.369149        -0.860688
 O        -2.034667        -2.594378        -0.853852
 H         2.049735         1.474595        -0.222471
 H         1.539766         0.886986         1.329650
 H         2.238219        -0.183636         0.079539
 H        -1.372869         1.741489        -0.922718
 H        -3.277870        -0.049632        -0.009682
 H        -1.292368        -0.237962         2.092852
 H        -2.366035        -1.665831         1.722268
 H         1.272242        -1.889537         1.066091
 H        -1.188760        -1.077511        -1.938806
 H        -2.593956        -2.669576        -1.634125
