19
Iteration:  4580
 C         1.577267         0.455532        -0.124779
 C         0.190257         0.051932        -0.337352
 C        -0.619471         0.272231        -1.312740
 C        -1.873110        -0.478395        -0.884969
 C        -2.070080        -0.183438         0.661462
 C        -0.601532        -0.911525         0.615667
 O        -0.021309        -1.325281         1.835202
 C        -1.211568        -1.860730        -0.470922
 O        -2.040869        -2.963910        -0.032954
 H         2.205460        -0.470908        -0.140303
 H         1.972508         1.164861        -0.890497
 H         1.850879         1.025607         0.816349
 H        -0.503955         1.038049        -2.051347
 H        -2.598652        -0.602650        -1.671650
 H        -1.983492         0.884377         1.060401
 H        -2.786087        -0.822889         1.013524
 H         0.888176        -0.893711         2.036489
 H        -0.385827        -2.246203        -1.170874
 H        -1.349902        -3.456673         0.560402
