19
Iteration:     9charge 0 multiplicity 1
 C         1.541413         0.722624         0.135510
 C         0.079225         0.254112         0.157194
 C        -1.124417         0.876773        -0.005778
 C        -2.204050        -0.257140        -0.013480
 C        -1.649861        -1.025170         1.263050
 C        -0.361650        -1.177718         0.318757
 O         0.513367        -2.242299         0.362301
 C        -1.409352        -1.312403        -0.885444
 O        -2.132029        -2.569820        -0.865193
 H         2.151814         0.468314         0.951198
 H         2.229971         0.280410        -0.634328
 H         1.731697         1.875469         0.137580
 H        -1.316526         1.999686         0.170174
 H        -3.270640        -0.055700        -0.196500
 H        -1.334509        -0.680027         2.279328
 H        -2.204243        -2.037006         1.365981
 H         0.785656        -2.435149         1.288901
 H        -0.834582        -0.971783        -1.789659
 H        -1.467863        -3.287653        -1.064209
