19
Iteration:  4460
 C         1.554067         0.583579        -0.099066
 C         0.208545         0.162619        -0.319439
 C        -0.744237         0.380804        -1.297262
 C        -1.869091        -0.602663        -0.809551
 C        -1.911941        -0.180059         0.726109
 C        -0.545818        -0.905739         0.620008
 O         0.075475        -1.393097         1.846033
 C        -1.201745        -1.950679        -0.466390
 O        -2.072138        -2.997116        -0.168091
 H         1.689819         1.646582        -0.283963
 H         1.871691         0.508536         0.943062
 H         2.285498        -0.036860        -0.625484
 H        -0.611282         0.731395        -2.312590
 H        -2.841499        -0.646470        -1.254607
 H        -1.993848         0.934382         0.910757
 H        -2.678092        -0.673242         1.260222
 H         0.657154        -2.021118         1.484637
 H        -0.369002        -2.253019        -1.065187
 H        -2.909270        -2.661907        -0.000244
