19
Iteration:  3948charge 0 multiplicity 1
 C         1.582359         0.673815        -0.030472
 C         0.231775         0.146653        -0.237199
 C        -0.805580         0.461451        -1.087006
 C        -2.021821        -0.332987        -0.689120
 C        -1.850814        -0.292991         0.883989
 C        -0.510490        -0.972718         0.579581
 O         0.087270        -1.756329         1.586963
 C        -1.308732        -1.792640        -0.690345
 O        -2.030591        -2.968814        -0.261393
 H         1.803348         1.253234        -0.960570
 H         1.799091         1.345294         0.829831
 H         2.328990        -0.060340         0.062349
 H        -0.812270         1.376374        -1.721724
 H        -3.044597        -0.097326        -1.087329
 H        -1.787181         0.573405         1.514037
 H        -2.670442        -0.980765         1.420635
 H         1.053222        -1.968106         1.243834
 H        -0.801528        -2.054535        -1.558838
 H        -1.551716        -3.341354         0.438956
