19
Iteration:  3474
 C         1.473418         0.648389         0.090325
 C         0.102278         0.275772        -0.101436
 C        -0.995312         0.667626        -0.763334
 C        -2.088399        -0.305082        -0.494004
 C        -1.815975        -0.560424         1.142973
 C        -0.449801        -1.110635         0.459077
 O         0.369310        -2.058240         1.169795
 C        -1.321192        -1.562356        -0.727874
 O        -1.954008        -2.802709        -0.489385
 H         2.094099        -0.173824         0.444063
 H         1.997510         0.827565        -0.869602
 H         1.802344         1.582893         0.598392
 H        -1.033006         1.532418        -1.368194
 H        -3.073150        -0.080771        -0.957656
 H        -1.820030         0.232858         1.863265
 H        -2.578760        -1.323027         1.444739
 H         0.977645        -1.640667         1.917364
 H        -0.621220        -1.568441        -1.660741
 H        -2.215450        -3.126243        -1.431654
