19
Iteration:  1907charge 0 multiplicity 1
 C         1.566846         0.541832        -0.021860
 C         0.062257         0.205248        -0.006646
 C        -1.138675         0.854606        -0.432312
 C        -2.189669        -0.242548        -0.178836
 C        -1.736904        -0.667241         1.223826
 C        -0.428665        -1.098249         0.488034
 O         0.445149        -2.090109         0.898521
 C        -1.379253        -1.486818        -0.824038
 O        -1.828881        -2.726842        -0.684066
 H         1.980639        -0.395093        -0.240882
 H         1.902389         1.349418        -0.764767
 H         1.784127         0.769607         1.018716
 H        -1.136596         1.801973        -1.002211
 H        -3.261797         0.051629        -0.303833
 H        -1.730466         0.107258         2.018127
 H        -2.227090        -1.497704         1.711682
 H         0.078637        -2.980621         0.710330
 H        -1.091880        -1.230207        -1.883803
 H        -2.181545        -3.049872        -1.542494
