19
Iteration:   590charge 0 multiplicity 1
 C         1.453911         0.757463         0.066011
 C         0.102483         0.188000         0.176870
 C        -1.030529         0.852753        -0.341224
 C        -2.082148        -0.263740        -0.185663
 C        -1.704866        -0.921341         1.223547
 C        -0.382086        -1.272317         0.357070
 O         0.684132        -2.074430         0.750182
 C        -1.416648        -1.440525        -0.860877
 O        -2.236737        -2.623301        -0.713684
 H         1.535576         1.816544         0.256309
 H         2.248625         0.335822         0.766867
 H         1.937196         0.738008        -0.940741
 H        -1.118998         1.825879        -0.836661
 H        -3.094818         0.116756        -0.355392
 H        -1.542734        -0.143864         2.045622
 H        -2.415529        -1.796469         1.531085
 H         0.291073        -2.861131         1.252868
 H        -1.004683        -1.316358        -1.863444
 H        -2.233403        -3.220101        -1.545900
