19
Iteration:  3900
 C         1.558436         0.463197        -0.174341
 C         0.094355         0.203228        -0.150070
 C        -0.818689         0.537126        -1.066245
 C        -1.951208        -0.310572        -0.607538
 C        -1.940478        -0.420256         0.910692
 C        -0.558155        -1.016434         0.599497
 O         0.140440        -1.675733         1.642694
 C        -1.236260        -1.690103        -0.650025
 O        -1.941764        -2.919155        -0.383373
 H         2.065646        -0.179573        -0.883077
 H         1.712624         1.472985        -0.531713
 H         2.030153         0.459686         0.862107
 H        -0.905103         1.523305        -1.560508
 H        -2.874682        -0.180158        -1.124311
 H        -2.183247         0.545867         1.469555
 H        -2.583350        -1.155865         1.291001
 H         0.965167        -1.956857         1.136267
 H        -0.562311        -1.877724        -1.528683
 H        -1.591751        -3.191025         0.522741
