19
Iteration:  3511charge 0 multiplicity 1
 C         1.551440         0.784911         0.054775
 C         0.139959         0.132303        -0.181921
 C        -0.934661         0.781375        -0.748018
 C        -2.033915        -0.208230        -0.506146
 C        -1.887360        -0.559725         1.090600
 C        -0.442099        -1.126649         0.465660
 O         0.249549        -2.059266         1.199594
 C        -1.311942        -1.672816        -0.679677
 O        -1.900350        -2.916404        -0.463150
 H         2.175782         0.207116        -0.639684
 H         1.429545         1.888490        -0.170961
 H         1.815095         0.499089         1.057756
 H        -0.975749         1.845058        -1.120500
 H        -2.962793         0.136677        -0.975024
 H        -1.870497         0.239269         1.890908
 H        -2.460262        -1.423052         1.316976
 H         0.932672        -1.512744         1.744410
 H        -0.855765        -1.781283        -1.701608
 H        -2.750826        -2.942854        -0.995568
