19
Iteration:  1656
 C         1.547525         0.569145        -0.106174
 C         0.081256         0.191873        -0.038881
 C        -1.027284         0.739214        -0.680377
 C        -2.156322        -0.227344        -0.232715
 C        -1.813207        -0.767874         1.255671
 C        -0.444050        -1.107865         0.616345
 O         0.479637        -2.047839         1.193897
 C        -1.269057        -1.520262        -0.762022
 O        -2.106619        -2.632170        -0.865082
 H         2.035962        -0.028685         0.748065
 H         2.102252         0.327990        -1.077227
 H         1.627029         1.629152         0.088493
 H        -1.080138         1.533208        -1.350176
 H        -3.228647        -0.117378        -0.456953
 H        -2.039502         0.036808         1.948521
 H        -2.332606        -1.691661         1.463611
 H         1.132215        -1.532050         1.603231
 H        -0.659832        -1.302984        -1.621780
 H        -1.520534        -3.361731        -1.100817
