19
Iteration:  1948
 C         1.547101         0.734900         0.095758
 C         0.191837         0.236097         0.020715
 C        -0.995249         0.827838        -0.427431
 C        -2.128391        -0.262941        -0.196259
 C        -1.816951        -0.816034         1.135025
 C        -0.449296        -1.165549         0.401778
 O         0.641092        -2.046669         0.791738
 C        -1.391438        -1.545764        -0.776251
 O        -2.193093        -2.701980        -0.607797
 H         2.145508         0.062299         0.696031
 H         2.056389         1.092592        -0.885959
 H         1.535745         1.734529         0.627058
 H        -1.093346         1.800593        -0.992548
 H        -3.139652        -0.026795        -0.622666
 H        -1.909444        -0.110797         2.038733
 H        -2.266710        -1.836294         1.437759
 H         0.247610        -2.886979         0.968013
 H        -0.863391        -1.580821        -1.786009
 H        -2.328494        -3.234986        -1.336754
