19
Iteration:  2567
 C         1.388608         0.659474        -0.050937
 C         0.038674         0.166469         0.071345
 C        -1.138381         0.858897        -0.152188
 C        -2.153511        -0.277496         0.075160
 C        -1.587192        -0.877870         1.368237
 C        -0.404695        -1.240769         0.509322
 O         0.640742        -2.190189         0.814874
 C        -1.387031        -1.329946        -0.793051
 O        -2.089989        -2.578454        -1.165891
 H         1.654011         1.375652        -0.835164
 H         1.685978         1.195574         0.838182
 H         2.119524        -0.195278        -0.041931
 H        -1.275066         1.872743        -0.633173
 H        -3.182379        -0.155754        -0.177849
 H        -1.444585        -0.144192         2.303862
 H        -2.159517        -1.741103         1.736016
 H         0.866712        -2.824430         0.005386
 H        -0.767001        -0.967277        -1.597831
 H        -2.347705        -2.491913        -2.191873
