19
Iteration:  2375
 C         1.509106         0.703501        -0.050377
 C         0.026207         0.264935         0.060842
 C        -1.092956         0.892345        -0.172133
 C        -2.129541        -0.182054        -0.010807
 C        -1.715294        -0.838871         1.339043
 C        -0.446972        -1.282077         0.477298
 O         0.554224        -2.255544         0.713562
 C        -1.403288        -1.413739        -0.820487
 O        -1.980460        -2.627475        -0.895026
 H         1.588048         1.639122         0.419786
 H         2.201305        -0.108206         0.342753
 H         1.661825         0.951332        -1.103006
 H        -1.358486         1.739007        -0.740132
 H        -3.165787         0.048127        -0.053105
 H        -1.446080        -0.317517         2.258403
 H        -2.471713        -1.578038         1.642813
 H         0.558153        -2.744663        -0.060155
 H        -0.954809        -1.118174        -1.825991
 H        -1.717994        -2.979286        -1.730196
