19
Iteration:  4439charge 0 multiplicity 1
 C         1.569902         0.501324        -0.087183
 C         0.179314         0.037059        -0.216586
 C        -0.737117         0.317928        -1.204630
 C        -1.966449        -0.550120        -0.862549
 C        -2.024891        -0.284577         0.688434
 C        -0.538680        -0.931300         0.615260
 O         0.131816        -1.293018         1.785255
 C        -1.167519        -1.857744        -0.533375
 O        -2.004425        -2.924499        -0.107370
 H         1.842623         1.092400        -0.986781
 H         1.803067         1.093139         0.807774
 H         2.224658        -0.361792        -0.057193
 H        -0.721549         1.101072        -1.956446
 H        -2.731322        -0.419062        -1.602070
 H        -1.931780         0.841206         0.996016
 H        -2.747668        -0.829966         1.221332
 H         0.929236        -1.956612         1.580346
 H        -0.462110        -2.055159        -1.300081
 H        -2.985211        -2.676108        -0.181177
