19
Iteration:  1624
 C         1.558447         0.489952        -0.234212
 C         0.100958         0.243217         0.126863
 C        -1.017377         0.869405        -0.335669
 C        -2.104024        -0.222556        -0.380870
 C        -1.823270        -0.802806         1.072706
 C        -0.497100        -1.176756         0.436061
 O         0.453592        -1.896179         1.258171
 C        -1.240692        -1.606398        -0.846494
 O        -2.111010        -2.709251        -0.751966
 H         2.187438        -0.455733        -0.015802
 H         1.732382         0.728009        -1.296889
 H         1.964256         1.317830         0.351500
 H        -1.020248         1.874625        -0.671179
 H        -3.172931        -0.074231        -0.558699
 H        -2.006574         0.078861         1.695863
 H        -2.285561        -1.710302         1.454383
 H         0.776243        -1.207561         1.921544
 H        -0.678707        -1.651779        -1.797439
 H        -1.669067        -3.603855        -1.110448
