19
Iteration:   191
 C         1.488345         0.605807        -0.167983
 C         0.029137         0.223703        -0.013489
 C        -1.064261         0.884890        -0.092001
 C        -2.246865        -0.194302         0.167295
 C        -1.681104        -0.935231         1.431413
 C        -0.465116        -1.135710         0.449606
 O         0.422007        -2.272998         0.692545
 C        -1.471494        -1.251175        -0.814525
 O        -1.643647        -2.635221        -1.041735
 H         1.680484         1.283977        -1.063039
 H         1.715926         1.127896         0.737834
 H         2.057420        -0.310936        -0.164647
 H        -1.350922         1.905179        -0.268705
 H        -3.324756         0.115857         0.130583
 H        -1.498427        -0.279827         2.263121
 H        -2.178335        -1.868170         1.744221
 H         0.009661        -3.025644         0.131642
 H        -1.115537        -0.802170        -1.741462
 H        -2.458540        -2.857222        -1.587750
