19
Iteration:   940charge 0 multiplicity 1
 C         1.529643         0.612734        -0.058670
 C         0.053953         0.249951         0.123468
 C        -1.048636         0.789617        -0.488055
 C        -2.086455        -0.361488        -0.239825
 C        -1.733562        -0.893465         1.174973
 C        -0.405275        -1.101254         0.531997
 O         0.696906        -1.912697         1.025098
 C        -1.279825        -1.586226        -0.815516
 O        -2.316028        -2.566013        -0.829096
 H         1.631172         1.703212         0.129533
 H         2.143407        -0.012713         0.628618
 H         1.611521         0.429938        -1.134699
 H        -1.222888         1.802185        -0.818674
 H        -3.086068        -0.127498        -0.613008
 H        -1.835399        -0.296671         2.024621
 H        -2.266840        -1.843177         1.322198
 H         0.230641        -2.591675         1.465404
 H        -0.700361        -1.390786        -1.744460
 H        -1.916217        -3.385238        -1.009860
