19
Iteration:  3593
 C         1.584076         0.532026        -0.017024
 C         0.140838         0.158005        -0.103314
 C        -0.956286         0.739986        -0.740416
 C        -2.158940        -0.303176        -0.466016
 C        -1.836502        -0.569431         1.058992
 C        -0.494864        -1.072494         0.463147
 O         0.376502        -1.737087         1.308120
 C        -1.265792        -1.623578        -0.785560
 O        -2.032366        -2.898163        -0.497501
 H         1.782075         1.479358         0.508398
 H         2.068133        -0.231880         0.554377
 H         2.248234         0.559811        -0.928837
 H        -0.862351         1.471510        -1.632586
 H        -3.201960        -0.034250        -0.876409
 H        -1.655730         0.326134         1.677667
 H        -2.534495        -1.267790         1.640184
 H        -0.193265        -2.097471         1.958985
 H        -0.647146        -1.708151        -1.629705
 H        -1.625008        -3.529795        -1.024366
