19
Iteration:  3599charge 0 multiplicity 1
 C         1.588625         0.502166        -0.041255
 C         0.081425         0.153201        -0.098804
 C        -0.952713         0.703045        -0.756924
 C        -2.137985        -0.331571        -0.508601
 C        -1.805083        -0.562055         1.081092
 C        -0.473323        -1.053859         0.486956
 O         0.335966        -1.718033         1.314637
 C        -1.274119        -1.611208        -0.775496
 O        -2.021785        -2.856244        -0.500806
 H         1.806356         1.360019         0.636405
 H         2.222695        -0.273387         0.485064
 H         2.114388         0.802156        -0.949204
 H        -0.891533         1.483752        -1.441111
 H        -3.152691        -0.159044        -0.702944
 H        -1.608401         0.335894         1.659674
 H        -2.464311        -1.251192         1.600166
 H        -0.264068        -2.374935         1.877226
 H        -0.607919        -1.643054        -1.723633
 H        -1.470899        -3.546320        -0.972767
