19
Iteration:   886
 C         1.495930         0.563414        -0.152783
 C         0.028465         0.278996        -0.010645
 C        -1.084103         0.864125        -0.345473
 C        -2.146763        -0.204977        -0.077593
 C        -1.636656        -0.723114         1.278406
 C        -0.433862        -1.088347         0.437656
 O         0.369290        -2.115360         0.984709
 C        -1.372806        -1.451279        -0.780440
 O        -1.833973        -2.804249        -0.818385
 H         1.773118         1.025510        -1.101335
 H         1.685312         1.131436         0.862596
 H         2.188664        -0.289233        -0.106903
 H        -1.302897         1.718964        -0.998365
 H        -3.147974         0.043499        -0.444111
 H        -1.562486         0.001123         2.072532
 H        -2.188270        -1.625495         1.640379
 H        -0.232912        -2.855704         0.860224
 H        -0.905081        -1.194845        -1.743447
 H        -2.029401        -2.972113        -1.759741
