19
Iteration:   428charge 0 multiplicity 1
 C         1.517051         0.658915        -0.129007
 C         0.100009         0.168423         0.023900
 C        -1.140767         0.846649        -0.294766
 C        -2.130199        -0.273186         0.066042
 C        -1.599224        -0.992863         1.396164
 C        -0.403661        -1.158281         0.536888
 O         0.647186        -2.091055         0.842350
 C        -1.487889        -1.368867        -0.800763
 O        -2.167160        -2.557481        -1.106531
 H         2.004962        -0.308579        -0.168181
 H         1.537596         1.340207        -1.016299
 H         1.807345         1.232081         0.752695
 H        -1.339384         1.832604        -0.819430
 H        -3.131625         0.156203        -0.114715
 H        -1.571546        -0.488698         2.373542
 H        -2.059698        -2.019837         1.571658
 H         0.218416        -2.760747         1.371881
 H        -0.885365        -0.993330        -1.669391
 H        -1.485936        -3.043319        -1.520622
