19
Iteration:  2684charge 0 multiplicity 1
 C         1.487923         0.834587         0.234318
 C         0.106884         0.258525        -0.025293
 C        -1.035313         0.836392        -0.316135
 C        -2.172916        -0.234935         0.025841
 C        -1.560848        -0.955960         1.334063
 C        -0.389465        -1.188024         0.360440
 O         0.540295        -2.334896         0.631022
 C        -1.544586        -1.401992        -0.841032
 O        -2.155098        -2.633756        -0.927192
 H         1.365845         1.651356         1.039121
 H         2.344858         0.251371         0.594286
 H         1.957609         1.323148        -0.635392
 H        -1.216986         1.924846        -0.568204
 H        -3.168576         0.076136        -0.282510
 H        -1.374222        -0.417584         2.252773
 H        -2.145531        -1.826812         1.580941
 H         1.303247        -1.945736         1.127504
 H        -1.108854        -1.137696        -1.870813
 H        -1.790632        -3.062292        -1.655937
