19
Iteration:  1775
 C         1.486096         0.649620         0.171225
 C         0.094408         0.153448        -0.186330
 C        -0.969998         0.808175        -0.488556
 C        -2.139600        -0.234092        -0.263293
 C        -1.680028        -0.588329         1.231917
 C        -0.426891        -1.153783         0.353609
 O         0.569530        -2.001460         0.899586
 C        -1.470241        -1.549436        -0.722966
 O        -2.119357        -2.829817        -0.734226
 H         1.588074         1.688523        -0.009619
 H         1.721348         0.430477         1.303165
 H         2.271412         0.100470        -0.371346
 H        -1.100970         1.853726        -0.779083
 H        -3.175672         0.065670        -0.538654
 H        -1.448359         0.224485         1.938308
 H        -2.345322        -1.361007         1.600488
 H         0.020791        -2.412848         1.640374
 H        -0.982514        -1.562908        -1.711645
 H        -1.438025        -3.619856        -0.753862
