19
Iteration:  4785charge 0 multiplicity 1
 C         1.679724         0.533697        -0.152441
 C         0.244817        -0.058234        -0.323739
 C        -0.555148         0.168598        -1.359129
 C        -1.854965        -0.613150        -0.981523
 C        -2.015017        -0.231272         0.547769
 C        -0.618221        -0.870674         0.633037
 O        -0.102376        -1.171499         1.906788
 C        -1.165397        -1.950229        -0.417952
 O        -2.165960        -2.822793         0.032730
 H         2.442035        -0.054418         0.294650
 H         2.115007         0.995546        -1.072055
 H         1.519661         1.306237         0.593498
 H        -0.439198         0.441714        -2.474195
 H        -2.704256        -0.906089        -1.592220
 H        -2.204227         0.835124         1.020452
 H        -2.747402        -0.808072         1.103295
 H         0.869561        -0.897008         1.971408
 H        -0.346179        -2.333504        -0.974523
 H        -1.784668        -3.269036         0.900565
