19
Iteration:   631charge 0 multiplicity 1
 C         1.507706         0.680158        -0.107463
 C         0.120999         0.204873         0.009183
 C        -1.121324         0.808583        -0.238517
 C        -2.073997        -0.320374        -0.062595
 C        -1.634580        -1.011610         1.263126
 C        -0.383777        -1.192706         0.408471
 O         0.541077        -2.068046         0.920882
 C        -1.354012        -1.440226        -0.831002
 O        -2.240466        -2.504998        -0.954856
 H         1.634136         1.538685         0.552461
 H         2.221246        -0.066104         0.275752
 H         1.716487         0.955941        -1.159466
 H        -1.231553         1.870530        -0.512980
 H        -3.159777        -0.194320        -0.316629
 H        -1.568826        -0.437379         2.187227
 H        -2.133604        -1.894746         1.519540
 H         0.788643        -1.742661         1.763170
 H        -1.031080        -1.159732        -1.837159
 H        -1.744081        -3.309610        -1.107841
