19
Iteration:  3330
 C         1.616824         0.571064        -0.013869
 C         0.117186         0.261003        -0.101152
 C        -1.066173         0.755448        -0.569387
 C        -2.238673        -0.271587        -0.305935
 C        -1.837891        -0.747951         1.149222
 C        -0.429782        -1.087911         0.479207
 O         0.466066        -1.937289         1.098470
 C        -1.284344        -1.531988        -0.740010
 O        -1.928027        -2.752158        -0.595546
 H         2.139773         0.466682        -0.996933
 H         2.001192         1.576256         0.178106
 H         2.178557        -0.107320         0.670772
 H        -1.473055         1.751784        -1.007544
 H        -3.133501        -0.152058        -0.874184
 H        -2.028634        -0.008404         1.891735
 H        -2.465091        -1.642283         1.399366
 H         0.144424        -2.880443         0.874742
 H        -0.665172        -1.536947        -1.740032
 H        -2.784662        -2.673087        -1.082417
