19
Iteration:    61
 C         1.427520         0.743448         0.314802
 C         0.102897         0.175487         0.044564
 C        -1.071817         0.859715        -0.270882
 C        -2.132843        -0.195240         0.037796
 C        -1.553724        -1.014234         1.297394
 C        -0.390244        -1.257326         0.308986
 O         0.601622        -2.211310         0.340891
 C        -1.506194        -1.350898        -0.789324
 O        -2.153793        -2.548483        -0.826944
 H         2.269214        -0.075795         0.464756
 H         1.658231         1.457467        -0.517644
 H         1.446673         1.443203         1.228576
 H        -1.239796         1.981909        -0.244896
 H        -3.186245         0.140596        -0.030810
 H        -1.352743        -0.314689         2.131310
 H        -2.069610        -1.976924         1.596075
 H         0.539133        -2.789743         1.148659
 H        -1.076519        -0.975518        -1.757274
 H        -1.624088        -3.133119        -1.462151
