19
Iteration:  2969
 C         1.508860         0.735042         0.013232
 C         0.115788         0.221909         0.017883
 C        -0.994581         0.869745        -0.327608
 C        -2.125304        -0.193153        -0.141822
 C        -1.789039        -0.901351         1.155088
 C        -0.409008        -1.158639         0.449347
 O         0.325762        -2.220989         0.752497
 C        -1.309380        -1.417649        -0.816950
 O        -1.987719        -2.692595        -0.705653
 H         1.836474         0.754872         1.067525
 H         2.169164         0.235600        -0.653474
 H         1.311813         1.715582        -0.359480
 H        -1.205086         1.925893        -0.558611
 H        -3.162998         0.037245        -0.507969
 H        -1.987828        -0.340640         2.155461
 H        -2.303103        -1.853578         1.114416
 H         1.058663        -1.982853         1.339961
 H        -0.851868        -1.203491        -1.790615
 H        -1.208978        -3.413114        -0.629317
