19
Iteration:  1848charge 0 multiplicity 1
 C         1.474205         0.595988        -0.245346
 C         0.125816         0.156046         0.142738
 C        -1.016388         0.857008        -0.257407
 C        -2.110522        -0.219161        -0.313733
 C        -1.987584        -0.665450         1.195016
 C        -0.455237        -1.231781         0.484895
 O         0.534044        -1.982641         1.041768
 C        -1.306825        -1.501486        -0.779199
 O        -1.907418        -2.767539        -0.711022
 H         1.584079         0.672669        -1.380750
 H         1.811981         1.528000         0.171937
 H         2.292053        -0.101531         0.083324
 H        -0.964520         1.791062        -0.822996
 H        -2.971008         0.112633        -0.897786
 H        -1.904299         0.180049         1.887398
 H        -2.428712        -1.674994         1.532154
 H         0.309395        -2.969304         1.012533
 H        -0.958454        -1.472168        -1.842566
 H        -2.431564        -2.821652        -1.615610
