19
Iteration:  2887charge 0 multiplicity 1
 C         1.469392         0.630059        -0.018467
 C         0.055624         0.233727         0.107577
 C        -1.045232         0.875745        -0.231339
 C        -2.141413        -0.268804        -0.124577
 C        -1.728026        -0.972325         1.195891
 C        -0.386115        -1.218599         0.433192
 O         0.593239        -2.084402         0.942432
 C        -1.413833        -1.419450        -0.882683
 O        -2.079612        -2.624181        -1.014167
 H         1.650243         1.670848        -0.410457
 H         1.937721         0.623451         1.058788
 H         2.147392        -0.021432        -0.688740
 H        -1.197154         1.765998        -0.962404
 H        -3.200406        -0.012425        -0.328121
 H        -1.720832        -0.422604         2.119882
 H        -2.379581        -1.896206         1.395476
 H         1.387014        -1.544432         1.301105
 H        -0.861009        -1.204203        -1.812229
 H        -2.666635        -2.815725        -0.167324
