19
Iteration:  2435charge 0 multiplicity 1
 C         1.452324         0.701167         0.140063
 C         0.056037         0.239367         0.032683
 C        -1.035465         0.892898        -0.144029
 C        -2.150491        -0.181131        -0.072629
 C        -1.610902        -0.916607         1.253084
 C        -0.369341        -1.188946         0.295123
 O         0.671656        -2.186182         0.631144
 C        -1.451118        -1.430244        -0.840123
 O        -2.168829        -2.693179        -0.834556
 H         1.447019         1.829192        -0.044592
 H         1.906148         0.633773         1.109882
 H         2.106655         0.088792        -0.512776
 H        -1.166042         1.974994        -0.172256
 H        -3.238066        -0.062995        -0.318077
 H        -1.180033        -0.404442         2.178737
 H        -2.313209        -1.810280         1.258037
 H         0.595203        -2.336872         1.598308
 H        -1.294870        -1.313236        -1.904769
 H        -2.555639        -2.797147        -1.795818
