19
Iteration:  4739
 C         1.612456         0.556547        -0.079451
 C         0.269979         0.071288        -0.337832
 C        -0.628994         0.156234        -1.355546
 C        -1.820913        -0.639755        -1.023368
 C        -1.942329        -0.126675         0.536165
 C        -0.626210        -0.836743         0.673527
 O        -0.025568        -1.226794         1.864022
 C        -1.213175        -1.964898        -0.408658
 O        -2.184356        -2.950168         0.048014
 H         1.680333         0.651120         0.986358
 H         2.412836        -0.062383        -0.474172
 H         1.735483         1.583316        -0.407265
 H        -0.313884         0.501808        -2.303746
 H        -2.702417        -0.527318        -1.597343
 H        -1.927636         0.947885         0.730442
 H        -2.875364        -0.482195         1.124295
 H         0.871602        -1.402676         1.553756
 H        -0.464154        -2.419223        -1.033348
 H        -1.849357        -3.407507         0.927296
