19
Iteration:  4326charge 0 multiplicity 1
 C         1.693174         0.499090        -0.108625
 C         0.177173         0.142067        -0.266364
 C        -0.784031         0.413329        -1.162378
 C        -2.001567        -0.488606        -0.849712
 C        -2.008674        -0.338380         0.791793
 C        -0.502439        -0.924931         0.561123
 O        -0.024004        -1.492209         1.775193
 C        -1.185026        -1.841997        -0.596995
 O        -1.966807        -2.879124        -0.151496
 H         1.944071         0.333959         0.925313
 H         2.317133        -0.080459        -0.835167
 H         1.902124         1.589577        -0.295664
 H        -0.813988         1.222545        -1.882816
 H        -2.884052        -0.404461        -1.556095
 H        -2.076491         0.619027         1.192771
 H        -2.669217        -1.087014         1.387973
 H         0.862835        -1.653753         1.543289
 H        -0.583710        -2.189256        -1.494876
 H        -1.784907        -2.796389         0.760943
