19
Iteration:  4192
 C         1.615802         0.574913        -0.064088
 C         0.154014         0.136182        -0.218647
 C        -0.688989         0.330117        -1.256451
 C        -1.949033        -0.350323        -0.732463
 C        -2.015585        -0.379543         0.829532
 C        -0.552773        -0.951822         0.615996
 O         0.206095        -1.504738         1.641606
 C        -1.310954        -1.789292        -0.590646
 O        -2.022671        -2.891000        -0.116616
 H         2.044117         0.647386        -1.056438
 H         1.850250         1.584510         0.289644
 H         2.323638        -0.033905         0.518598
 H        -0.721741         1.197271        -2.003244
 H        -2.854425        -0.134676        -1.252400
 H        -2.158354         0.488521         1.573386
 H        -2.699856        -1.180326         0.946992
 H        -0.199217        -2.273030         1.959975
 H        -0.601676        -2.030105        -1.450607
 H        -1.912508        -3.631170        -0.768116
