19
Iteration:  2615
 C         1.453311         0.517443        -0.013835
 C         0.021565         0.285156         0.122102
 C        -1.152351         0.963923        -0.059961
 C        -2.142278        -0.176199         0.008188
 C        -1.697596        -1.074132         1.260953
 C        -0.348087        -1.129987         0.390566
 O         0.574294        -2.112965         0.621915
 C        -1.385858        -1.364158        -0.872157
 O        -1.973305        -2.608679        -0.910105
 H         1.653079         1.514973        -0.381299
 H         2.045001         0.479372         0.924474
 H         1.934665        -0.220423        -0.632975
 H        -1.270387         1.954848        -0.465884
 H        -3.233909         0.079888        -0.010750
 H        -1.611240        -0.784696         2.263887
 H        -2.202310        -2.053801         1.250796
 H         0.286816        -2.634428         1.319295
 H        -0.991557        -1.015500        -1.828571
 H        -2.165062        -2.896401        -1.742391
