19
Iteration:  3468
 C         1.505470         0.631067         0.084474
 C         0.089043         0.279257        -0.111051
 C        -0.999710         0.727875        -0.805100
 C        -2.064477        -0.276694        -0.450045
 C        -1.837747        -0.592642         1.118888
 C        -0.453517        -1.067374         0.542124
 O         0.394134        -2.068076         1.147807
 C        -1.251966        -1.571882        -0.721403
 O        -2.007184        -2.825164        -0.510423
 H         1.974418        -0.222167         0.655577
 H         2.057180         0.504906        -0.895558
 H         1.618027         1.640429         0.485926
 H        -1.320072         1.680619        -1.384869
 H        -3.057090        -0.286680        -0.934930
 H        -1.810376         0.278538         1.865568
 H        -2.498632        -1.399676         1.383086
 H         0.816618        -1.538213         1.836386
 H        -0.664172        -1.556358        -1.598592
 H        -2.113937        -3.235478        -1.371199
