19
Iteration:  1805
 C         1.512447         0.641352         0.006614
 C         0.117649         0.222944        -0.044362
 C        -1.073176         0.796542        -0.560369
 C        -2.140528        -0.290129        -0.240607
 C        -1.692619        -0.835464         1.242553
 C        -0.356380        -1.106628         0.407070
 O         0.549658        -1.996590         1.107546
 C        -1.410370        -1.470771        -0.830737
 O        -2.106530        -2.654149        -0.693579
 H         1.714013         1.262028        -0.874443
 H         1.681608         0.977164         1.043693
 H         2.106088        -0.301745        -0.099659
 H        -1.011849         1.620626        -1.272723
 H        -3.192885        -0.125748        -0.456239
 H        -1.555108        -0.124591         2.074409
 H        -2.366524        -1.754322         1.352151
 H        -0.052452        -2.765730         1.169868
 H        -0.911115        -1.359177        -1.842498
 H        -1.943227        -3.365172        -1.347034
