19
Iteration:  1890
 C         1.553949         0.483092        -0.084540
 C         0.122273         0.312704        -0.108789
 C        -1.136148         0.845187        -0.473453
 C        -2.174100        -0.233922        -0.090789
 C        -1.738845        -0.788695         1.260730
 C        -0.471266        -1.027378         0.434882
 O         0.331897        -2.089652         0.978332
 C        -1.324648        -1.347242        -0.760844
 O        -1.758388        -2.793482        -0.707203
 H         2.140291        -0.233979        -0.823335
 H         1.865942         1.423163        -0.414670
 H         1.885949         0.290265         0.976344
 H        -1.452964         1.708011        -1.042549
 H        -3.141325        -0.060935        -0.533524
 H        -1.635837        -0.143307         2.134822
 H        -2.236667        -1.784593         1.499454
 H        -0.317471        -2.881925         0.979014
 H        -0.775229        -1.000149        -1.634390
 H        -2.434570        -2.971127        -1.474203
