19
Iteration:  3356
 C         1.401832         0.581767        -0.078401
 C         0.073229         0.190067        -0.013631
 C        -0.967203         0.839651        -0.574829
 C        -2.059583        -0.216661        -0.291346
 C        -1.800833        -0.622201         1.200075
 C        -0.444632        -1.124717         0.512626
 O         0.450375        -1.963826         1.166334
 C        -1.346482        -1.574380        -0.789664
 O        -1.877061        -2.848424        -0.728761
 H         1.567578         1.104284        -1.023294
 H         1.871480         1.296996         0.628134
 H         2.096709        -0.253502        -0.013878
 H        -1.022359         1.495397        -1.352987
 H        -3.061449        -0.014430        -0.753358
 H        -1.856513         0.242209         1.885821
 H        -2.560559        -1.296092         1.581061
 H         0.176758        -2.854765         0.832767
 H        -0.787749        -1.559754        -1.711369
 H        -2.821934        -2.911708        -0.517360
