19
Iteration:  2277charge 0 multiplicity 1
 C         1.538870         0.730832         0.001608
 C         0.050142         0.288771         0.156902
 C        -1.161333         0.917370        -0.150158
 C        -2.152121        -0.195935        -0.100972
 C        -1.705360        -0.909866         1.177014
 C        -0.349847        -1.188273         0.411318
 O         0.626506        -2.195370         0.696978
 C        -1.345304        -1.520949        -0.877262
 O        -2.089832        -2.685428        -0.816652
 H         2.139183         0.420660         0.843742
 H         1.901302         0.244906        -1.000895
 H         1.517478         1.840348        -0.074765
 H        -1.061523         1.784258        -0.731492
 H        -3.180893         0.082300        -0.098647
 H        -1.541721        -0.239087         2.075628
 H        -2.229902        -1.840790         1.562977
 H         0.167838        -2.605320         1.367260
 H        -0.930570        -1.393571        -1.903802
 H        -2.820667        -2.534039        -1.427686
