19
Iteration:  3126charge 0 multiplicity 1
 C         1.485221         0.689640        -0.022884
 C         0.085747         0.230537         0.018074
 C        -1.041885         0.855162        -0.445350
 C        -2.112914        -0.100756        -0.118290
 C        -1.786824        -0.718180         1.162243
 C        -0.519754        -1.129439         0.426257
 O         0.395943        -2.116839         0.933568
 C        -1.325037        -1.512853        -0.814161
 O        -1.784620        -2.852664        -0.683782
 H         1.718092         1.374810        -0.761749
 H         1.946717         1.047105         0.892192
 H         2.086897        -0.191675        -0.262721
 H        -1.127585         1.686710        -1.130049
 H        -3.135446         0.127230        -0.280391
 H        -1.732392        -0.066958         1.993735
 H        -2.380413        -1.685116         1.359805
 H        -0.177932        -2.990318         0.906146
 H        -0.803282        -1.426749        -1.772033
 H        -2.540746        -2.997127        -1.281079
