19
Iteration:  1030
 C         1.489667         0.771031         0.128386
 C         0.095935         0.258763        -0.050480
 C        -1.032535         0.771070        -0.501233
 C        -2.116280        -0.241815        -0.305231
 C        -1.759207        -0.648436         1.166518
 C        -0.447263        -1.123732         0.450953
 O         0.343084        -2.323499         0.731432
 C        -1.322454        -1.477817        -0.751727
 O        -1.962890        -2.712903        -0.568792
 H         2.144458         0.261576         0.803662
 H         2.086428         0.492594        -0.869967
 H         1.586627         1.817705         0.385309
 H        -1.303681         1.743517        -0.904749
 H        -3.107951        -0.069666        -0.763996
 H        -1.638703         0.217282         1.871713
 H        -2.361750        -1.418585         1.575711
 H         0.919295        -2.194186         1.494151
 H        -0.767070        -1.554351        -1.707462
 H        -1.504298        -3.295914        -0.018554
