19
Iteration:   401charge 0 multiplicity 1
 C         1.485900         0.612327        -0.125790
 C         0.037007         0.254481         0.172062
 C        -1.158553         0.870282        -0.125322
 C        -2.160339        -0.287888         0.004120
 C        -1.636194        -0.887888         1.306882
 C        -0.410875        -1.166535         0.387989
 O         0.558793        -2.225537         0.665206
 C        -1.371403        -1.341355        -0.858799
 O        -2.034288        -2.572753        -0.951813
 H         2.028314        -0.287362         0.237857
 H         1.568585         0.746022        -1.193668
 H         1.870450         1.510587         0.411842
 H        -1.364980         1.840184        -0.529345
 H        -3.181172         0.007757        -0.151407
 H        -1.512627        -0.133771         2.136534
 H        -2.211641        -1.719098         1.746194
 H         0.264646        -2.447176         1.529833
 H        -0.867374        -1.033686        -1.763477
 H        -1.373981        -3.216891        -0.862593
