19
Iteration:  3106
 C         1.460294         0.674934        -0.051980
 C         0.090343         0.242241         0.049974
 C        -1.043624         0.824673        -0.466666
 C        -2.153195        -0.200580        -0.307982
 C        -1.802551        -0.825386         1.227802
 C        -0.442793        -1.188797         0.491207
 O         0.483076        -2.190668         0.928752
 C        -1.330979        -1.386388        -0.795745
 O        -1.881691        -2.689100        -0.631813
 H         1.632027         1.085435        -1.047648
 H         1.635456         1.510347         0.694517
 H         2.295352         0.000064         0.139239
 H        -0.958928         1.806444        -1.001107
 H        -3.138407         0.060712        -0.649907
 H        -1.681217        -0.155683         2.043335
 H        -2.519415        -1.692443         1.428252
 H        -0.020724        -2.932832         1.272289
 H        -0.877848        -1.149862        -1.879755
 H        -2.270526        -3.012254        -1.377461
