19
Iteration:  2388charge 0 multiplicity 1
 C         1.391508         0.745099        -0.035099
 C         0.072141         0.225087         0.112996
 C        -1.060478         0.896075        -0.287167
 C        -2.108492        -0.169433        -0.011983
 C        -1.673889        -0.983668         1.260455
 C        -0.392154        -1.188665         0.427556
 O         0.577776        -2.278076         0.732534
 C        -1.383031        -1.330220        -0.761143
 O        -2.079495        -2.618697        -0.820039
 H         1.536989         1.724280         0.450118
 H         2.156431         0.106028         0.446939
 H         1.715596         0.780396        -1.068811
 H        -1.147980         1.978904        -0.535361
 H        -3.148798         0.069380        -0.264304
 H        -1.714107        -0.344820         2.173483
 H        -2.180153        -2.005913         1.269851
 H         0.457918        -3.017287         0.009421
 H        -0.830751        -1.105792        -1.691961
 H        -1.924360        -3.033737        -1.726354
