19
Iteration:  3755charge 0 multiplicity 1
 C         1.585215         0.623225         0.056761
 C         0.150783         0.159409        -0.156434
 C        -0.902789         0.604823        -1.016729
 C        -2.003164        -0.354978        -0.640857
 C        -1.858061        -0.494771         0.968061
 C        -0.490159        -0.997676         0.575724
 O         0.328271        -1.761378         1.368150
 C        -1.261096        -1.708281        -0.644681
 O        -2.012516        -2.889718        -0.328521
 H         1.666164         1.398121        -0.696509
 H         1.623510         0.979337         1.079412
 H         2.226425        -0.278855        -0.167409
 H        -1.084022         1.637694        -1.368769
 H        -2.979251        -0.233436        -1.223540
 H        -1.971836         0.449584         1.470332
 H        -2.652294        -1.170894         1.365129
 H         0.259142        -2.635891         1.099277
 H        -0.760706        -1.942439        -1.656122
 H        -2.979076        -2.631649        -0.096188
