19
Iteration:  2690
 C         1.445140         0.827653         0.241824
 C         0.161007         0.238672        -0.040743
 C        -1.084240         0.794388        -0.311198
 C        -2.159602        -0.252089         0.037675
 C        -1.559514        -0.936512         1.308108
 C        -0.357732        -1.225450         0.347394
 O         0.530781        -2.309620         0.661929
 C        -1.503475        -1.333985        -0.873106
 O        -2.191177        -2.608413        -0.914617
 H         1.329851         1.487103         1.063935
 H         2.200095         0.069362         0.548781
 H         1.987848         1.414231        -0.520600
 H        -1.285151         1.742894        -0.709466
 H        -3.224855         0.025119        -0.170010
 H        -1.400254        -0.251903         2.188323
 H        -1.889667        -1.981197         1.637103
 H         1.406575        -1.916767         1.054976
 H        -1.160986        -0.962429        -1.805304
 H        -1.667644        -3.165184        -1.654410
