19
Iteration:  4698
 C         1.547662         0.492242        -0.074146
 C         0.227665        -0.049973        -0.388292
 C        -0.651934         0.228985        -1.404623
 C        -1.884030        -0.540138        -0.974151
 C        -1.979452        -0.174734         0.551108
 C        -0.614626        -0.800360         0.600167
 O        -0.127124        -1.334042         1.865769
 C        -1.167109        -1.865219        -0.485229
 O        -1.956433        -2.804430         0.212182
 H         1.424119         1.411465         0.513909
 H         1.855347        -0.317666         0.656315
 H         2.351916         0.673303        -0.791427
 H        -0.536571         0.495888        -2.464129
 H        -2.651251        -0.507642        -1.699495
 H        -1.872340         0.986557         0.679141
 H        -2.694569        -0.781589         1.132778
 H         0.540579        -2.115553         1.673439
 H        -0.418169        -2.394925        -1.083233
 H        -1.380348        -3.569374         0.400272
