19
Iteration:  1277charge 0 multiplicity 1
 C         1.502953         0.745320         0.110749
 C         0.114594         0.232322        -0.065045
 C        -0.980827         0.691170        -0.627714
 C        -2.087187        -0.273660        -0.396483
 C        -1.824798        -0.715254         1.093193
 C        -0.436852        -1.092600         0.498301
 O         0.594528        -2.008237         0.970111
 C        -1.273261        -1.615482        -0.748929
 O        -2.261036        -2.698601        -0.536188
 H         1.877017         1.365689        -0.793926
 H         1.806065         1.300118         0.936604
 H         2.161997        -0.153976         0.295092
 H        -1.192754         1.714365        -0.911619
 H        -2.995633         0.137266        -0.842571
 H        -1.801238         0.018191         1.955752
 H        -2.362221        -1.716659         1.220424
 H         0.392889        -2.933227         0.879500
 H        -0.739336        -1.536441        -1.707494
 H        -1.624278        -3.407969        -0.217666
