19
Iteration:  1749charge 0 multiplicity 1
 C         1.498063         0.681909         0.223256
 C         0.058882         0.272141        -0.014271
 C        -1.025224         0.750266        -0.619927
 C        -2.073094        -0.239925        -0.336111
 C        -1.717458        -0.633218         1.192670
 C        -0.463395        -1.181389         0.421503
 O         0.543483        -2.133557         0.736072
 C        -1.387432        -1.545497        -0.745831
 O        -2.095962        -2.703390        -0.593647
 H         1.660562         1.767242         0.617988
 H         1.965522         0.060808         0.977158
 H         2.099814         0.541074        -0.706881
 H        -1.149084         1.658031        -1.178052
 H        -3.069946         0.088590        -0.561475
 H        -1.746364         0.266289         1.831421
 H        -2.465384        -1.434557         1.529012
 H         0.448116        -2.486476         1.691422
 H        -0.912567        -1.676698        -1.747367
 H        -1.637240        -3.510195        -0.077075
