19
Iteration:  1731charge 0 multiplicity 1
 C         1.514113         0.717916         0.190817
 C         0.094318         0.233779         0.001686
 C        -0.939463         0.758624        -0.620342
 C        -2.130524        -0.248957        -0.329357
 C        -1.794314        -0.804584         1.125888
 C        -0.412119        -1.106217         0.383379
 O         0.440905        -2.153233         0.779853
 C        -1.294537        -1.453456        -0.840704
 O        -2.145027        -2.674425        -0.454779
 H         1.428040         1.612281         0.693516
 H         2.146290        -0.129870         0.682501
 H         1.964078         0.936726        -0.779018
 H        -1.001900         1.689687        -1.134029
 H        -3.146167        -0.263217        -0.734840
 H        -1.587519        -0.109217         1.928405
 H        -2.279114        -1.717057         1.418598
 H         0.619278        -2.177905         1.781716
 H        -0.934169        -1.387939        -1.890258
 H        -1.361562        -3.241273         0.011755
