19
Iteration:  3760charge 0 multiplicity 1
 C         1.590925         0.653144         0.052926
 C         0.164365         0.155475        -0.170726
 C        -0.921754         0.571679        -1.006132
 C        -2.022793        -0.399792        -0.663885
 C        -1.867296        -0.528405         0.963239
 C        -0.489798        -0.983492         0.564479
 O         0.290376        -1.779327         1.415545
 C        -1.276317        -1.686312        -0.699291
 O        -2.003605        -2.834027        -0.320763
 H         1.613525         1.532607        -0.624989
 H         1.896092         0.794843         1.135991
 H         2.223644        -0.126616        -0.380470
 H        -0.928110         1.580011        -1.397347
 H        -2.919057        -0.293422        -1.250923
 H        -1.835199         0.484233         1.581847
 H        -2.523289        -1.157183         1.565036
 H         0.346643        -2.751787         1.046002
 H        -0.732871        -1.912837        -1.564365
 H        -2.816093        -2.588085         0.025697
