19
Iteration:  4188
 C         1.604720         0.547397        -0.062125
 C         0.170809         0.144661        -0.243034
 C        -0.727270         0.321561        -1.270375
 C        -1.957318        -0.308819        -0.727725
 C        -2.025180        -0.360502         0.839586
 C        -0.554699        -0.942281         0.617898
 O         0.220475        -1.500457         1.683816
 C        -1.290599        -1.771352        -0.626724
 O        -2.012506        -2.918897        -0.115173
 H         2.121769         0.513755        -1.092955
 H         1.803473         1.586789         0.285628
 H         2.220861        -0.030954         0.628725
 H        -0.648118         1.142126        -1.954954
 H        -2.915484        -0.072083        -1.228432
 H        -2.220857         0.495372         1.511001
 H        -2.745120        -1.180869         0.995796
 H        -0.091410        -2.497355         1.830978
 H        -0.592079        -2.036545        -1.481072
 H        -1.870889        -3.631035        -0.765742
