19
Iteration:  2859
 C         1.489574         0.648315        -0.048080
 C         0.072684         0.277454         0.195166
 C        -1.120074         0.900747        -0.208890
 C        -2.099605        -0.377088        -0.207663
 C        -1.723640        -0.975798         1.237701
 C        -0.375040        -1.220783         0.446975
 O         0.555385        -2.128525         0.915381
 C        -1.307774        -1.452483        -0.839900
 O        -2.158740        -2.538340        -1.048068
 H         1.652721         1.116570        -1.018581
 H         1.874829         1.403512         0.570216
 H         2.177849        -0.148259        -0.007176
 H        -1.374604         1.925207        -0.461975
 H        -3.124562        -0.299322        -0.520268
 H        -1.584557        -0.178068         2.008644
 H        -2.314663        -1.815539         1.533362
 H         1.457784        -1.699673         1.137605
 H        -0.756427        -1.307894        -1.772727
 H        -2.552932        -2.800644        -0.136171
