19
Iteration:  4762
 C         1.565837         0.561878        -0.086711
 C         0.277199        -0.018572        -0.366457
 C        -0.595518         0.166299        -1.389123
 C        -1.805965        -0.667582        -0.950946
 C        -1.999122        -0.265156         0.521991
 C        -0.518272        -0.926249         0.625267
 O        -0.046354        -1.162463         1.958803
 C        -1.130739        -1.970942        -0.405842
 O        -2.222823        -2.789772        -0.019367
 H         2.119208         0.146537         0.706353
 H         2.027356         0.181088        -1.007009
 H         1.676420         1.628737        -0.008470
 H        -0.717009         0.887286        -2.238149
 H        -2.715070        -0.823562        -1.470363
 H        -2.100241         0.863852         0.714546
 H        -2.773610        -0.681546         1.216171
 H         0.915816        -0.963562         1.999870
 H        -0.418507        -2.447900        -1.031279
 H        -2.205716        -2.967623         0.864820
