19
Iteration:  1666
 C         1.521810         0.636533        -0.031959
 C         0.079707         0.181819        -0.011468
 C        -1.024530         0.659578        -0.687001
 C        -2.151669        -0.209729        -0.195546
 C        -1.760458        -0.661526         1.245847
 C        -0.418343        -1.149923         0.558120
 O         0.417950        -2.079342         1.109780
 C        -1.266574        -1.460711        -0.682851
 O        -2.113252        -2.710300        -0.878770
 H         2.029959         0.408470         0.877198
 H         2.103747         0.164336        -0.907233
 H         1.673595         1.710577        -0.072608
 H        -1.042436         1.369816        -1.471038
 H        -3.120711        -0.109954        -0.670320
 H        -1.671925         0.024579         2.050356
 H        -2.450469        -1.457088         1.507821
 H         1.103277        -1.575928         1.492396
 H        -0.781252        -1.285282        -1.616315
 H        -1.450965        -3.436473        -1.100297
