19
Iteration:  3924
 C         1.581371         0.573377        -0.129357
 C         0.185224         0.136883        -0.311287
 C        -0.894436         0.532736        -1.020898
 C        -2.063786        -0.404809        -0.617594
 C        -1.868595        -0.298542         0.945717
 C        -0.505276        -1.020487         0.553880
 O         0.041282        -1.760588         1.646330
 C        -1.181138        -1.688298        -0.587313
 O        -1.948825        -2.875252        -0.392777
 H         2.250342         0.638749        -0.992140
 H         1.534513         1.599034         0.268599
 H         2.042981         0.069751         0.699900
 H        -0.719125         1.037109        -2.062259
 H        -2.968848        -0.473293        -1.160854
 H        -1.808172         0.742767         1.376509
 H        -2.425282        -0.878341         1.726398
 H         0.797215        -2.141042         1.322272
 H        -0.614624        -1.854857        -1.477970
 H        -1.585332        -3.399857         0.387944
