19
Iteration:  1291charge 0 multiplicity 1
 C         1.553145         0.728488         0.064003
 C         0.127229         0.183212        -0.016643
 C        -0.940458         0.761813        -0.595070
 C        -2.063002        -0.281791        -0.367608
 C        -1.884705        -0.680973         1.119377
 C        -0.424813        -1.125388         0.496736
 O         0.566432        -1.992886         0.941601
 C        -1.373136        -1.570704        -0.747629
 O        -2.154321        -2.741209        -0.529890
 H         1.713749         1.490443        -0.684541
 H         1.563434         1.227678         1.023188
 H         2.319680        -0.015695        -0.036169
 H        -1.000334         1.548371        -1.301432
 H        -3.106960        -0.198856        -0.712907
 H        -2.049541         0.171575         1.847011
 H        -2.535151        -1.409637         1.486173
 H         0.138349        -2.875069         1.096486
 H        -0.850589        -1.655507        -1.741494
 H        -1.675426        -3.573768        -0.871276
