19
Iteration:  4241charge 0 multiplicity 1
 C         1.494448         0.658560        -0.009825
 C         0.154539         0.146823        -0.325849
 C        -0.733865         0.411841        -1.268107
 C        -1.899957        -0.456836        -0.839652
 C        -1.863501        -0.296641         0.770740
 C        -0.558742        -1.042714         0.570244
 O         0.146734        -1.713184         1.657263
 C        -1.190324        -1.795931        -0.527677
 O        -2.119800        -2.827207        -0.061225
 H         1.690431         1.739233        -0.300810
 H         1.807493         0.654471         1.038545
 H         2.219599         0.029920        -0.548918
 H        -0.792718         1.415668        -1.665305
 H        -2.893569        -0.579797        -1.349502
 H        -1.835933         0.736003         1.092882
 H        -2.636791        -0.928798         1.327053
 H         0.444462        -1.003923         2.382873
 H        -0.535677        -2.176572        -1.267788
 H        -1.701845        -3.609457        -0.536618
