19
Iteration:  1121charge 0 multiplicity 1
 C         1.473659         0.485444        -0.139945
 C         0.095014         0.218131         0.009177
 C        -1.079655         0.783237        -0.528458
 C        -2.188730        -0.267713        -0.186258
 C        -1.773179        -0.686971         1.246007
 C        -0.442097        -1.116815         0.534274
 O         0.540863        -2.000571         1.086115
 C        -1.319898        -1.478705        -0.770014
 O        -2.025910        -2.684974        -0.857092
 H         2.026303        -0.278958        -0.781362
 H         1.621467         1.481420        -0.606701
 H         2.148652         0.375527         0.712238
 H        -1.193502         1.624151        -1.199633
 H        -3.245134        -0.216238        -0.480649
 H        -1.628137         0.185119         1.899725
 H        -2.372187        -1.566954         1.716582
 H         0.253383        -2.236767         2.033703
 H        -0.687544        -1.251582        -1.650787
 H        -1.308026        -3.246804        -1.159874
