19
Iteration:  1044
 C         1.534217         0.740508         0.041669
 C         0.076514         0.227601        -0.056177
 C        -0.986138         0.914729        -0.497432
 C        -2.063077        -0.241302        -0.338204
 C        -1.840500        -0.758336         1.203563
 C        -0.432548        -1.203575         0.387945
 O         0.377790        -2.227589         0.821075
 C        -1.289062        -1.523497        -0.796134
 O        -2.044037        -2.741704        -0.572375
 H         2.123323         0.186207         0.837099
 H         2.083964         1.008324        -0.945398
 H         1.464963         1.747541         0.553106
 H        -1.034562         2.003888        -0.575376
 H        -3.098482        -0.093767        -0.607280
 H        -1.700058         0.030318         2.002889
 H        -2.513455        -1.659884         1.474094
 H         0.918815        -1.920010         1.570513
 H        -0.921029        -1.395230        -1.828767
 H        -1.623789        -3.150274         0.306262
