19
Iteration:  3994charge 0 multiplicity 1
 C         1.587312         0.618926         0.086329
 C         0.140186         0.199992        -0.216799
 C        -0.878731         0.473444        -1.171292
 C        -2.034630        -0.488340        -0.777697
 C        -1.902530        -0.350258         0.778577
 C        -0.481566        -0.976673         0.507952
 O         0.256071        -1.758467         1.542785
 C        -1.208218        -1.786857        -0.606245
 O        -2.137247        -2.759928        -0.150984
 H         1.820661         1.618721         0.457903
 H         1.978972        -0.064343         0.871599
 H         2.289673         0.404859        -0.702701
 H        -1.034533         1.387829        -1.653798
 H        -2.940066        -0.514892        -1.465339
 H        -1.996074         0.698517         1.142140
 H        -2.482044        -0.989792         1.489774
 H         1.145493        -2.072536         1.318942
 H        -0.546164        -2.067778        -1.385540
 H        -1.774952        -3.249089         0.589343
