19
Iteration:   171
 C         1.407965         0.604026        -0.180131
 C        -0.023896         0.201344         0.208738
 C        -1.124285         0.891440         0.066254
 C        -2.166410        -0.168197         0.040036
 C        -1.630089        -0.906379         1.303064
 C        -0.417599        -1.224977         0.371744
 O         0.462882        -2.239002         0.650176
 C        -1.372522        -1.282588        -0.817792
 O        -1.762900        -2.621493        -0.989151
 H         1.400852         1.063695        -1.247460
 H         1.884979         1.481802         0.392783
 H         2.261214        -0.201031        -0.181597
 H        -1.269624         1.799582        -0.472388
 H        -3.247236         0.000483        -0.097881
 H        -1.378070        -0.270489         2.172716
 H        -2.327889        -1.778051         1.579910
 H        -0.052794        -3.022763         0.847901
 H        -0.988114        -0.892912        -1.805474
 H        -2.509402        -2.656167        -1.545358
