19
Iteration:  2331charge 0 multiplicity 1
 C         1.547984         0.537408        -0.096983
 C        -0.032092         0.276867         0.039792
 C        -1.187938         0.919709        -0.203657
 C        -2.178395        -0.135885         0.100678
 C        -1.647970        -0.961196         1.303750
 C        -0.424287        -1.181368         0.384628
 O         0.555932        -2.118020         0.830662
 C        -1.400253        -1.301894        -0.830766
 O        -1.883967        -2.690531        -0.953192
 H         1.847819         1.056823         0.758819
 H         1.910552        -0.524492        -0.013055
 H         1.895439         1.023146        -1.012469
 H        -1.315209         1.832526        -0.688929
 H        -3.206556        -0.028043        -0.113948
 H        -1.469559        -0.410074         2.239769
 H        -2.287910        -1.840023         1.495894
 H         0.176883        -2.958546         0.671924
 H        -1.091495        -0.993135        -1.850923
 H        -2.287606        -2.922940        -1.770705
