19
Iteration:  1397charge 0 multiplicity 1
 C         1.529869         0.536578        -0.196410
 C         0.104689         0.275188         0.058507
 C        -0.971764         0.820408        -0.521696
 C        -2.096267        -0.329034        -0.437471
 C        -1.951777        -0.702658         1.112007
 C        -0.558627        -1.086810         0.598502
 O         0.478263        -1.950841         1.221971
 C        -1.180295        -1.634661        -0.755787
 O        -2.041667        -2.699135        -0.681217
 H         1.626059         1.680674         0.065093
 H         2.192501         0.006015         0.432264
 H         1.936538         0.325355        -1.260175
 H        -1.169148         1.752414        -1.020055
 H        -3.096832        -0.233752        -0.853060
 H        -1.828370         0.193215         1.770168
 H        -2.837411        -1.354676         1.240299
 H         0.882340        -2.587553         0.570265
 H        -0.531722        -1.442140        -1.596722
 H        -1.634188        -3.348899        -0.153249
