19
Iteration:  1607charge 0 multiplicity 1
 C         1.530323         0.492155        -0.220378
 C         0.068547         0.227779         0.035467
 C        -0.988951         0.919799        -0.345457
 C        -2.073687        -0.186906        -0.344116
 C        -1.892179        -0.779068         1.069286
 C        -0.443091        -1.120235         0.515828
 O         0.413924        -1.961278         1.203811
 C        -1.231642        -1.593391        -0.880707
 O        -2.041798        -2.761988        -0.662321
 H         1.964516        -0.444321        -0.536630
 H         1.578761         1.067943        -1.155847
 H         2.055611         1.104576         0.555716
 H        -1.144204         1.882805        -0.842450
 H        -3.016916         0.028593        -0.883096
 H        -1.723674        -0.128354         1.983276
 H        -2.609729        -1.596500         1.159908
 H         0.518545        -1.658677         2.179743
 H        -0.644243        -1.539446        -1.845788
 H        -1.529595        -3.529262        -1.101263
