19
Iteration:  3978charge 0 multiplicity 1
 C         1.534528         0.621752         0.043163
 C         0.203753         0.105049        -0.305617
 C        -0.839384         0.543647        -1.042620
 C        -1.940486        -0.409208        -0.744884
 C        -1.975984        -0.382278         0.818385
 C        -0.518742        -1.040147         0.558322
 O         0.232001        -1.755131         1.548817
 C        -1.215672        -1.789810        -0.666596
 O        -2.098752        -2.768241        -0.151785
 H         1.434483         1.710743        -0.106090
 H         1.785794         0.458545         1.087532
 H         2.336962         0.262463        -0.665157
 H        -0.716690         1.081941        -2.043535
 H        -2.903931        -0.314880        -1.172686
 H        -1.902040         0.580530         1.323760
 H        -2.800744        -1.021926         1.158378
 H         1.045107        -1.723082         1.138265
 H        -0.666057        -2.236671        -1.571327
 H        -1.692952        -3.075897         0.723186
