19
Iteration:   363charge 0 multiplicity 1
 C         1.518313         0.713622        -0.002052
 C         0.171211         0.244402         0.143302
 C        -1.078634         0.916167        -0.103326
 C        -2.152700        -0.141393         0.027609
 C        -1.812131        -0.996272         1.233265
 C        -0.450420        -1.190454         0.318870
 O         0.425366        -2.230744         0.472917
 C        -1.437970        -1.377148        -0.885500
 O        -1.946712        -2.667374        -0.731463
 H         2.186066         0.379271         0.915670
 H         2.005341         0.135997        -0.860876
 H         1.648130         1.776496        -0.294474
 H        -1.184340         1.876556        -0.587172
 H        -3.184081         0.277355        -0.047178
 H        -1.768080        -0.467779         2.165039
 H        -2.184315        -2.018492         1.207372
 H         1.088387        -2.136995         1.175665
 H        -1.057194        -1.179111        -1.939169
 H        -1.269755        -3.168448        -0.273305
