19
Iteration:  4781charge 0 multiplicity 1
 C         1.663735         0.544264        -0.185098
 C         0.248811        -0.086415        -0.299236
 C        -0.588457         0.145857        -1.350796
 C        -1.839491        -0.641201        -0.968522
 C        -1.988353        -0.245344         0.574814
 C        -0.626178        -0.857574         0.632973
 O        -0.095182        -1.156213         1.895950
 C        -1.147946        -1.950562        -0.417634
 O        -2.175209        -2.789092         0.016009
 H         2.395405        -0.103598         0.413740
 H         2.296830         0.953327        -0.978001
 H         1.423948         1.403438         0.487106
 H        -0.450129         0.571039        -2.314458
 H        -2.619240        -0.860696        -1.698922
 H        -2.167945         0.654413         0.956728
 H        -2.798006        -0.851155         1.070967
 H         0.789462        -0.892533         1.975537
 H        -0.292146        -2.408937        -1.036312
 H        -1.900629        -3.101716         0.849604
