19
Iteration:  1160charge 0 multiplicity 1
 C         1.598993         0.572219        -0.248152
 C         0.098526         0.196795        -0.018181
 C        -1.070341         0.935082        -0.375282
 C        -2.142617        -0.171209        -0.259250
 C        -1.874206        -0.787021         1.078105
 C        -0.444480        -1.159309         0.455383
 O         0.401781        -2.008571         1.146185
 C        -1.234354        -1.492253        -0.736259
 O        -1.939482        -2.790312        -0.582716
 H         1.693902         0.297676        -1.279172
 H         1.620254         1.715729        -0.089749
 H         2.215818         0.025747         0.491417
 H        -0.993529         1.914361        -0.932365
 H        -3.147128         0.164909        -0.563163
 H        -1.907437        -0.101671         1.945832
 H        -2.234333        -1.750489         1.239280
 H         0.072008        -2.846865         0.858092
 H        -0.825456        -1.418908        -1.772103
 H        -2.025932        -3.211638        -1.525090
