19
Iteration:  1825
 C         1.541567         0.638878        -0.160738
 C         0.107195         0.256229         0.062141
 C        -1.072401         0.823841        -0.482893
 C        -2.067586        -0.270901        -0.243748
 C        -1.857320        -0.811126         1.131185
 C        -0.458490        -1.164132         0.617209
 O         0.562081        -2.004695         1.037483
 C        -1.213837        -1.476402        -0.736218
 O        -2.143433        -2.699011        -0.712888
 H         1.717097         1.053164        -1.240782
 H         1.864707         1.304945         0.586676
 H         2.223437        -0.232230        -0.009873
 H        -1.326402         1.778807        -0.957220
 H        -3.025768        -0.097070        -0.692373
 H        -1.819465        -0.094704         1.959324
 H        -2.395178        -1.820589         1.247997
 H         0.203175        -2.863719         1.023757
 H        -0.617603        -1.598940        -1.655998
 H        -2.230261        -2.984814        -1.559302
