19
Iteration:  1299
 C         1.545077         0.715481         0.063197
 C         0.101779         0.160391        -0.016976
 C        -0.939452         0.810585        -0.620914
 C        -2.108761        -0.285570        -0.346487
 C        -1.902713        -0.637059         1.167045
 C        -0.449275        -1.123122         0.433101
 O         0.541794        -2.010172         0.968476
 C        -1.341697        -1.612914        -0.761567
 O        -2.101791        -2.767153        -0.527346
 H         1.607670         1.607930        -0.659720
 H         1.789247         1.117955         1.005754
 H         2.402093         0.004660        -0.084661
 H        -0.818180         1.578445        -1.338671
 H        -3.144983        -0.206035        -0.686225
 H        -1.610502         0.171303         1.883796
 H        -2.620930        -1.415879         1.550993
 H         0.124110        -2.849670         1.338942
 H        -0.899081        -1.462534        -1.734281
 H        -1.690850        -3.306978        -1.211670
