19
Iteration:  1089
 C         1.516758         0.598127        -0.010246
 C         0.093221         0.266121        -0.112355
 C        -0.990670         0.801557        -0.540091
 C        -2.117944        -0.302305        -0.172824
 C        -1.723810        -0.761498         1.295678
 C        -0.435630        -1.112948         0.516440
 O         0.555914        -2.015328         1.056245
 C        -1.356039        -1.528474        -0.830888
 O        -2.172368        -2.712035        -0.911104
 H         1.982528        -0.452681        -0.060094
 H         1.660783         1.177025        -0.923184
 H         1.784004         1.198542         0.920243
 H        -1.332387         1.700661        -1.027923
 H        -3.141774        -0.304759        -0.558195
 H        -1.663561         0.133569         1.942089
 H        -2.400853        -1.596301         1.772184
 H         0.569228        -1.818543         1.986031
 H        -0.714095        -1.442139        -1.729600
 H        -1.673490        -3.348338        -0.279578
