19
Iteration:   694
 C         1.550001         0.579472        -0.195752
 C         0.093670         0.272789         0.153845
 C        -1.099704         0.894919        -0.187649
 C        -2.204008        -0.168962        -0.058558
 C        -1.816298        -0.896262         1.297287
 C        -0.480404        -1.152302         0.440118
 O         0.400283        -2.213609         0.611932
 C        -1.358587        -1.396798        -0.797206
 O        -1.845876        -2.662139        -0.755715
 H         2.088928         0.720809         0.863592
 H         1.949511        -0.232303        -0.755877
 H         1.608498         1.508282        -0.795339
 H        -1.252477         1.795115        -0.747235
 H        -3.213891         0.071002        -0.453493
 H        -1.631196        -0.126677         2.098794
 H        -2.451255        -1.699410         1.522180
 H         0.904075        -2.103068         1.405049
 H        -0.888941        -1.009503        -1.756071
 H        -1.165673        -3.374698        -0.787392
