19
Iteration:   482charge 0 multiplicity 1
 C         1.493062         0.658288        -0.018570
 C         0.063852         0.248674         0.155773
 C        -1.092736         0.911420        -0.253169
 C        -2.084025        -0.263790        -0.118512
 C        -1.701621        -0.977427         1.214618
 C        -0.380389        -1.182718         0.401350
 O         0.655341        -2.058232         0.789393
 C        -1.335026        -1.448396        -0.873164
 O        -2.166360        -2.652392        -0.769488
 H         1.752035         0.490542        -1.070726
 H         1.663864         1.748600         0.171798
 H         2.035511         0.025045         0.674744
 H        -1.275574         1.980690        -0.444307
 H        -3.106921        -0.030108        -0.457654
 H        -1.592265        -0.368777         2.127514
 H        -2.170761        -1.997229         1.267875
 H         0.271599        -2.973028         0.757560
 H        -1.027058        -1.205163        -1.911116
 H        -2.882314        -2.516099        -1.406724
