19
Iteration:   282charge 0 multiplicity 1
 C         1.531208         0.821129         0.214298
 C         0.126995         0.247259         0.127429
 C        -1.087063         0.823734        -0.290910
 C        -2.085821        -0.276538        -0.009051
 C        -1.549952        -1.029067         1.233328
 C        -0.283949        -1.230252         0.294513
 O         0.692551        -2.119331         0.608411
 C        -1.557580        -1.392683        -0.916698
 O        -2.382895        -2.613312        -0.812479
 H         1.412421         1.759162         0.636278
 H         2.064305         0.008761         0.774495
 H         1.799639         0.950710        -0.890826
 H        -1.293765         1.931051        -0.668438
 H        -3.127094         0.012679        -0.082249
 H        -1.273970        -0.589007         2.266545
 H        -2.100925        -1.990330         1.458320
 H         0.789705        -2.422760         1.567307
 H        -1.155220        -1.168025        -1.942446
 H        -2.158157        -3.197153        -1.577649
