19
Iteration:  4630
 C         1.547691         0.460276        -0.190611
 C         0.198606        -0.016326        -0.280289
 C        -0.623081         0.134980        -1.375327
 C        -1.861988        -0.525209        -0.925937
 C        -1.968544        -0.223987         0.692863
 C        -0.657349        -0.854359         0.727722
 O         0.007731        -1.175552         1.963070
 C        -1.162046        -1.891665        -0.410555
 O        -2.109274        -2.875188        -0.160367
 H         2.060455         0.620311        -1.147643
 H         1.593122         1.466146         0.312169
 H         2.215258        -0.229004         0.354799
 H        -0.369298         0.689537        -2.272413
 H        -2.713754        -0.516012        -1.608823
 H        -2.031217         0.843971         0.909012
 H        -2.701011        -1.063018         1.111336
 H         0.893117        -1.002026         1.824978
 H        -0.325900        -2.204135        -1.031759
 H        -1.658302        -3.650148         0.013316
