19
Iteration:  2292
 C         1.484483         0.675696        -0.074102
 C         0.086268         0.302492         0.222602
 C        -1.012727         0.878847        -0.157756
 C        -2.133543        -0.235533        -0.114981
 C        -1.762558        -0.952852         1.265232
 C        -0.450623        -1.205632         0.405170
 O         0.603762        -2.105255         0.671252
 C        -1.370386        -1.393818        -0.850004
 O        -2.042644        -2.724118        -0.836710
 H         2.247484         0.686179         0.798516
 H         1.935038        -0.077892        -0.720451
 H         1.611778         1.625423        -0.601003
 H        -1.336979         1.924044        -0.302019
 H        -3.170125        -0.056850        -0.539393
 H        -1.690594        -0.271013         2.125981
 H        -2.367454        -1.900728         1.376201
 H         0.507787        -2.669539         1.486684
 H        -0.845566        -1.146358        -1.786985
 H        -2.912140        -2.541319        -1.424481
