19
Iteration:  1711charge 0 multiplicity 1
 C         1.544643         0.763159         0.122413
 C         0.125955         0.218433        -0.125989
 C        -0.975372         0.866625        -0.464784
 C        -2.056206        -0.209522        -0.354430
 C        -1.786377        -0.728232         1.091293
 C        -0.428311        -1.159091         0.383605
 O         0.373413        -2.211435         0.913613
 C        -1.379493        -1.615823        -0.797928
 O        -2.082000        -2.712738        -0.520559
 H         1.550133         1.445421         0.954062
 H         2.200078        -0.136979         0.229970
 H         1.938901         1.323747        -0.717214
 H        -1.300352         1.810946        -0.834400
 H        -3.078867         0.141475        -0.620939
 H        -1.698399        -0.047814         1.957706
 H        -2.415749        -1.557138         1.296106
 H         0.852244        -1.736716         1.576786
 H        -0.857484        -1.516099        -1.739226
 H        -1.360148        -3.440722        -0.522138
