19
Iteration:  4174charge 0 multiplicity 1
 C         1.585914         0.456370        -0.084102
 C         0.173433         0.050667        -0.314174
 C        -0.773178         0.498494        -1.145552
 C        -2.062511        -0.340663        -0.749400
 C        -1.978899        -0.289233         0.803543
 C        -0.566187        -0.904138         0.635882
 O         0.195919        -1.516366         1.724409
 C        -1.228361        -1.760086        -0.594651
 O        -1.946976        -2.933637        -0.152129
 H         2.341818         0.235971        -0.828556
 H         1.524766         1.532878         0.142956
 H         1.778916        -0.118732         0.855796
 H        -0.690776         0.814001        -2.162775
 H        -2.973877        -0.308738        -1.395601
 H        -2.004738         0.699506         1.164612
 H        -2.625555        -1.005055         1.438201
 H         0.357582        -2.368818         1.411306
 H        -0.635143        -1.987794        -1.429071
 H        -1.824099        -3.679678        -0.812158
