19
Iteration:  2062charge 0 multiplicity 1
 C         1.485487         0.541012        -0.087807
 C         0.046303         0.269317         0.020078
 C        -1.067890         0.903776        -0.222951
 C        -2.167748        -0.201830        -0.196146
 C        -1.775581        -0.909774         1.197136
 C        -0.402666        -1.129999         0.377765
 O         0.547569        -2.079452         0.863079
 C        -1.322829        -1.423598        -0.821311
 O        -1.969916        -2.663784        -0.682625
 H         1.845615         1.586929         0.127528
 H         2.101653        -0.174059         0.482720
 H         1.728376         0.321009        -1.129752
 H        -1.264218         2.040774        -0.212680
 H        -3.176384        -0.126744        -0.603342
 H        -1.582695        -0.153460         1.936997
 H        -2.414953        -1.775020         1.393440
 H        -0.043078        -2.714111         1.275432
 H        -1.146322        -1.104125        -1.882106
 H        -1.785023        -3.454670        -1.349238
