19
Iteration:  2242
 C         1.487159         0.739141         0.186785
 C         0.122926         0.107466        -0.098505
 C        -1.096965         0.783926        -0.408639
 C        -2.165801        -0.170025        -0.012061
 C        -1.611300        -0.943774         1.317117
 C        -0.378121        -1.163613         0.322076
 O         0.538878        -2.090533         0.734582
 C        -1.487148        -1.422141        -0.861805
 O        -2.044574        -2.656194        -0.753791
 H         2.209823         0.132881         0.649697
 H         2.032998         1.227535        -0.695887
 H         1.435261         1.669977         0.825728
 H        -1.053492         1.968399        -0.362414
 H        -3.247890         0.062098        -0.130318
 H        -1.379330        -0.187127         2.090334
 H        -2.167158        -1.800957         1.649531
 H         0.308305        -2.963894         0.533169
 H        -1.086817        -1.270719        -1.895897
 H        -2.367433        -2.931068        -1.579110
