19
Iteration:  1771charge 0 multiplicity 1
 C         1.469536         0.634702         0.181272
 C         0.107828         0.144580        -0.174359
 C        -0.969181         0.844901        -0.506043
 C        -2.152154        -0.241712        -0.254896
 C        -1.702125        -0.562368         1.213704
 C        -0.424986        -1.134948         0.388763
 O         0.581236        -2.029078         0.867630
 C        -1.438932        -1.541967        -0.735013
 O        -2.134769        -2.860334        -0.723426
 H         1.622431         1.773232         0.178323
 H         1.751022         0.467089         1.200075
 H         2.291759         0.180357        -0.419554
 H        -1.117101         1.852169        -0.818237
 H        -3.143968        -0.017684        -0.594229
 H        -1.390767         0.147756         1.988340
 H        -2.423800        -1.335850         1.695440
 H         0.038100        -2.341903         1.563851
 H        -0.899501        -1.567913        -1.707353
 H        -1.513776        -3.513906        -0.645089
