19
Iteration:  3930charge 0 multiplicity 1
 C         1.638402         0.627511        -0.122393
 C         0.192943         0.142482        -0.280918
 C        -0.904517         0.563455        -1.051647
 C        -2.027842        -0.411396        -0.579527
 C        -1.872351        -0.290976         0.929781
 C        -0.506685        -1.047146         0.531278
 O         0.043432        -1.768609         1.655241
 C        -1.251731        -1.695837        -0.598141
 O        -1.968997        -2.909730        -0.364820
 H         2.311496         0.815191        -0.972809
 H         1.345031         1.547567         0.442039
 H         2.118981        -0.140514         0.611214
 H        -0.762796         0.920883        -2.016338
 H        -2.940735        -0.430085        -1.248413
 H        -1.844088         0.798693         1.076259
 H        -2.404055        -0.872607         1.653339
 H         0.936275        -2.149729         1.248494
 H        -0.612994        -1.835535        -1.572827
 H        -1.534373        -3.321226         0.338403
