19
Iteration:  2924
 C         1.481879         0.643911         0.043658
 C         0.066623         0.186719         0.087735
 C        -1.086990         0.774033        -0.323258
 C        -2.154232        -0.249451        -0.069669
 C        -1.674111        -0.719183         1.300752
 C        -0.436640        -1.118561         0.423333
 O         0.357534        -2.140659         0.785022
 C        -1.375121        -1.459387        -0.823368
 O        -1.886563        -2.709398        -1.034014
 H         1.557960         1.511066         0.707110
 H         2.068937        -0.150369         0.475484
 H         1.812116         0.728434        -0.957482
 H        -1.217892         1.732841        -0.632194
 H        -3.191991         0.015755        -0.128286
 H        -1.403039         0.130315         2.011919
 H        -2.182093        -1.620449         1.726255
 H         1.283921        -1.936930         1.091213
 H        -0.963087        -1.220244        -1.781626
 H        -2.122226        -3.157631        -0.094455
