19
Iteration:   610
 C         1.524730         0.781548        -0.045419
 C         0.179550         0.247932         0.104529
 C        -1.086450         0.870777        -0.204311
 C        -2.109808        -0.249304        -0.156581
 C        -1.736813        -0.959308         1.142244
 C        -0.359471        -1.208855         0.470575
 O         0.739272        -2.126372         0.850669
 C        -1.410146        -1.495493        -0.865966
 O        -2.362212        -2.617420        -0.840993
 H         1.783245         1.727946         0.374958
 H         2.298151         0.159435         0.449483
 H         1.807419         0.871943        -1.118326
 H        -1.268454         1.927607        -0.578241
 H        -3.163478        -0.079201        -0.503717
 H        -1.844308        -0.429283         2.120573
 H        -2.322571        -1.881016         1.294263
 H         0.735408        -2.304269         1.840940
 H        -0.932149        -1.458183        -1.842642
 H        -2.107064        -3.345500        -1.412203
