19
Iteration:  2322
 C         1.452364         0.520757        -0.115276
 C         0.079639         0.258826         0.028362
 C        -1.142048         0.912386        -0.171877
 C        -2.263461        -0.121790         0.095353
 C        -1.738788        -0.976290         1.279990
 C        -0.432546        -1.229404         0.379478
 O         0.617595        -2.110177         0.792240
 C        -1.367112        -1.289977        -0.887058
 O        -1.883642        -2.664150        -0.880804
 H         1.757819         1.025385         0.832757
 H         2.055989        -0.465719        -0.099314
 H         1.819448         1.174727        -0.906622
 H        -1.251273         1.758836        -0.784560
 H        -3.280523         0.047633        -0.172093
 H        -1.598404        -0.430654         2.264553
 H        -2.234523        -2.014668         1.501589
 H         0.182827        -2.902094         1.033158
 H        -0.795290        -0.993212        -1.781541
 H        -2.407125        -2.565289        -1.656473
