19
Iteration:   783charge 0 multiplicity 1
 C         1.411413         0.721670         0.123206
 C         0.059015         0.149678        -0.094678
 C        -1.033351         0.773949        -0.476787
 C        -2.123563        -0.228060        -0.030749
 C        -1.520913        -0.855377         1.312412
 C        -0.373175        -1.282849         0.369605
 O         0.710823        -2.024973         0.812518
 C        -1.430041        -1.498469        -0.800519
 O        -2.303572        -2.584643        -0.805332
 H         2.357731         0.135457         0.369244
 H         1.843060         1.311097        -0.619589
 H         1.393065         1.398922         1.024977
 H        -1.391808         1.525728        -1.167635
 H        -3.215262        -0.039984        -0.164516
 H        -1.276538        -0.092410         2.057587
 H        -2.215173        -1.589634         1.600219
 H         0.372918        -2.628141         1.509129
 H        -1.188105        -1.423968        -1.886979
 H        -2.027443        -3.073699        -1.550429
