19
Iteration:    78
 C         1.475457         0.736046         0.288995
 C         0.157562         0.247595        -0.043493
 C        -1.150326         0.795296        -0.194982
 C        -2.132738        -0.303306         0.109995
 C        -1.522076        -0.904655         1.413048
 C        -0.351575        -1.189596         0.320227
 O         0.680087        -2.158085         0.452593
 C        -1.462810        -1.385252        -0.856207
 O        -2.309320        -2.572497        -1.003784
 H         2.227748        -0.010680         0.182665
 H         2.012827         1.547666        -0.178976
 H         1.488223         0.910686         1.346155
 H        -1.368004         1.757267        -0.616152
 H        -3.209332        -0.198165        -0.032345
 H        -1.320473        -0.319179         2.315279
 H        -2.112800        -1.759814         1.669595
 H         0.212144        -2.809449         1.065394
 H        -1.249518        -0.944957        -1.826124
 H        -1.736555        -3.298834        -1.457958
