19
Iteration:  2131
 C         1.528005         0.657562        -0.071796
 C         0.066071         0.183975         0.000236
 C        -1.086860         0.846506        -0.286790
 C        -2.167746        -0.334972        -0.111423
 C        -1.705293        -0.770242         1.343570
 C        -0.417941        -1.176162         0.518008
 O         0.552710        -2.091913         0.923189
 C        -1.354063        -1.390208        -0.858378
 O        -2.009958        -2.686420        -0.913979
 H         1.659274         1.145914        -1.070016
 H         1.673156         1.423888         0.662806
 H         2.110431        -0.269597         0.103286
 H        -1.175425         1.658382        -0.887959
 H        -3.220008        -0.169972        -0.505047
 H        -1.352971        -0.017274         2.001849
 H        -2.116300        -1.621143         1.819615
 H         0.161914        -3.056394         0.946714
 H        -0.923190        -1.209251        -1.864709
 H        -2.799429        -2.494299        -1.626919
