19
Iteration:  1945
 C         1.524712         0.723644         0.071609
 C         0.155001         0.234832         0.023856
 C        -0.968061         0.842331        -0.416522
 C        -2.113870        -0.236606        -0.218043
 C        -1.822100        -0.798168         1.150339
 C        -0.466032        -1.160750         0.437551
 O         0.642750        -2.033626         0.779532
 C        -1.389193        -1.577628        -0.769024
 O        -2.176742        -2.723815        -0.607400
 H         2.248455         0.055876         0.648545
 H         1.985985         1.064176        -0.802349
 H         1.548538         1.650568         0.673612
 H        -1.018085         1.803214        -0.934747
 H        -3.101270         0.037069        -0.585478
 H        -1.860964        -0.122971         1.984289
 H        -2.231356        -1.805540         1.329905
 H         0.215198        -2.959654         0.895253
 H        -0.908267        -1.465602        -1.731597
 H        -2.337104        -3.331903        -1.461262
