19
Iteration:  3812charge 0 multiplicity 1
 C         1.626258         0.678101        -0.106795
 C         0.177136         0.111358        -0.204799
 C        -0.800763         0.519678        -0.942254
 C        -2.069897        -0.324159        -0.604100
 C        -1.925595        -0.308036         1.033995
 C        -0.551080        -1.042838         0.572268
 O         0.122440        -1.784530         1.515062
 C        -1.320975        -1.703876        -0.640533
 O        -1.923498        -2.977561        -0.475154
 H         1.763020         1.265656         0.789285
 H         2.288298        -0.157680        -0.138219
 H         1.959888         1.302298        -1.018097
 H        -0.731885         1.442130        -1.474271
 H        -3.021744        -0.189515        -1.203279
 H        -1.981287         0.771059         1.482549
 H        -2.518079        -0.992724         1.605476
 H         0.990229        -2.316584         1.237717
 H        -0.699132        -1.721890        -1.543051
 H        -1.826488        -3.242793         0.468981
