19
Iteration:  3253
 C         1.498638         0.748396         0.059812
 C         0.114620         0.237439        -0.089020
 C        -1.041258         0.707791        -0.644421
 C        -2.201067        -0.311463        -0.226119
 C        -1.678835        -0.713538         1.229877
 C        -0.387228        -1.153846         0.450584
 O         0.483177        -2.067362         1.022122
 C        -1.318817        -1.525263        -0.757564
 O        -2.110418        -2.662647        -0.718173
 H         2.002601         0.166603         0.904503
 H         2.157250         0.703593        -0.830934
 H         1.691112         1.778164         0.490017
 H        -1.266943         1.585058        -1.278780
 H        -3.143849         0.142200        -0.480662
 H        -1.536467         0.075757         1.969107
 H        -2.195337        -1.632922         1.543627
 H        -0.047619        -2.913391         1.250041
 H        -0.932167        -1.447515        -1.867947
 H        -1.488928        -3.513311        -0.717317
