19
Iteration:  2666
 C         1.482065         0.863085         0.152098
 C         0.106116         0.243218         0.138585
 C        -1.032445         0.874397        -0.187743
 C        -2.086437        -0.147465        -0.051010
 C        -1.678417        -0.917567         1.247573
 C        -0.422686        -1.290851         0.374660
 O         0.492030        -2.250423         0.495554
 C        -1.386630        -1.425739        -0.788188
 O        -2.140439        -2.740457        -0.868815
 H         1.552832         1.804330         0.663371
 H         2.243345         0.178972         0.584293
 H         1.927259         0.977329        -0.904126
 H        -1.223239         1.993871        -0.352787
 H        -3.153646         0.038612        -0.052454
 H        -1.557799        -0.273885         2.232816
 H        -2.225262        -1.863615         1.450133
 H         1.009934        -2.131395         1.340613
 H        -0.986011        -1.114312        -1.756317
 H        -1.958333        -3.021926        -1.755800
