19
Iteration:  4239
 C         1.490240         0.658158        -0.011243
 C         0.160312         0.163339        -0.331603
 C        -0.747033         0.423491        -1.258589
 C        -1.887791        -0.460483        -0.838330
 C        -1.864848        -0.285857         0.753472
 C        -0.563695        -1.058647         0.559998
 O         0.158994        -1.716877         1.677499
 C        -1.194814        -1.807692        -0.512316
 O        -2.110149        -2.815580        -0.069953
 H         1.652109         1.646232        -0.390638
 H         1.809678         0.672096         1.016593
 H         2.239923        -0.005140        -0.503559
 H        -0.857431         1.409787        -1.607370
 H        -2.884143        -0.625436        -1.318326
 H        -1.803744         0.706765         1.037400
 H        -2.661004        -0.925864         1.297389
 H         0.378220        -1.088069         2.368774
 H        -0.583777        -2.180481        -1.269440
 H        -1.750314        -3.544966        -0.539979
