19
Iteration:  2348charge 0 multiplicity 1
 C         1.501154         0.524097        -0.058635
 C         0.101864         0.294595         0.066244
 C        -1.096751         0.869365        -0.184407
 C        -2.197827        -0.290606         0.006204
 C        -1.603516        -0.834772         1.348429
 C        -0.411918        -1.115276         0.435087
 O         0.445609        -2.098000         0.784561
 C        -1.493804        -1.383853        -0.809855
 O        -1.907087        -2.722147        -0.981404
 H         1.928607         1.376853         0.621967
 H         2.075285        -0.361936         0.056448
 H         1.592374         0.984200        -1.071658
 H        -1.441503         1.957407        -0.305409
 H        -3.294013         0.049105        -0.006424
 H        -1.497854        -0.214407         2.249768
 H        -1.961616        -1.837415         1.679539
 H         0.345730        -2.724826         0.131743
 H        -1.015104        -1.041461        -1.753463
 H        -1.896943        -2.694698        -1.965171
