19
Iteration:  3554
 C         1.472803         0.621491         0.032198
 C         0.119288         0.197510        -0.077564
 C        -0.909633         0.668906        -0.788673
 C        -2.085288        -0.292460        -0.497540
 C        -1.894820        -0.597237         1.046926
 C        -0.525056        -1.097144         0.516793
 O         0.409520        -1.931990         1.197376
 C        -1.215875        -1.638070        -0.703321
 O        -2.017897        -2.764156        -0.450280
 H         1.740325         1.420303        -0.699403
 H         1.715129         1.040602         1.085259
 H         2.145907        -0.217223        -0.248381
 H        -0.855981         1.507641        -1.501597
 H        -2.986988        -0.330288        -1.110924
 H        -1.843397         0.352559         1.643421
 H        -2.378499        -1.402917         1.511685
 H         0.579396        -1.618488         2.179975
 H        -0.548407        -1.690193        -1.675115
 H        -2.333753        -3.147655        -1.347034
