19
Iteration:  3147
 C         1.588491         0.600992        -0.009673
 C         0.088516         0.190976        -0.061704
 C        -1.062940         0.898753        -0.434581
 C        -2.187057        -0.260023        -0.257649
 C        -1.769693        -0.674695         1.248534
 C        -0.503725        -1.087857         0.436830
 O         0.409046        -2.045978         0.988001
 C        -1.425024        -1.435325        -0.788367
 O        -1.769641        -2.873351        -0.716822
 H         1.791370         1.616104        -0.131197
 H         1.938935         0.401599         1.008099
 H         2.175426        -0.044062        -0.664754
 H        -1.297358         1.934635        -0.560661
 H        -3.158233        -0.117105        -0.679071
 H        -1.631393         0.108313         1.963745
 H        -2.204569        -1.584908         1.783174
 H         0.100040        -2.876240         0.570229
 H        -1.060968        -1.393065        -1.734875
 H        -2.577969        -2.995132        -1.366523
