19
Iteration:  2059
 C         1.488475         0.551192        -0.081916
 C         0.032872         0.249896         0.023528
 C        -1.098764         0.938099        -0.247271
 C        -2.137151        -0.206083        -0.212813
 C        -1.757515        -0.919406         1.206694
 C        -0.415277        -1.127975         0.390927
 O         0.555476        -2.091501         0.841550
 C        -1.319975        -1.402519        -0.813619
 O        -1.974271        -2.669440        -0.673971
 H         1.768090         1.529124         0.206818
 H         2.002830        -0.294464         0.535389
 H         1.711875         0.381830        -1.150582
 H        -1.175041         2.000197        -0.265855
 H        -3.171420        -0.089914        -0.517182
 H        -1.568000        -0.080186         1.938429
 H        -2.426758        -1.806754         1.354588
 H        -0.111388        -2.725464         1.300083
 H        -1.050743        -1.160184        -1.867744
 H        -1.744130        -3.435332        -1.275862
