19
Iteration:  1824charge 0 multiplicity 1
 C         1.538063         0.635740        -0.152372
 C         0.101289         0.260307         0.054983
 C        -1.072741         0.821559        -0.486702
 C        -2.069631        -0.268335        -0.244501
 C        -1.845151        -0.815050         1.130590
 C        -0.454698        -1.164829         0.614706
 O         0.560117        -2.006387         1.040190
 C        -1.217469        -1.476999        -0.736490
 O        -2.146136        -2.694587        -0.710111
 H         1.747230         1.089038        -1.221494
 H         1.881405         1.304036         0.587526
 H         2.212689        -0.230506        -0.008148
 H        -1.328302         1.759137        -0.994628
 H        -3.024976        -0.093042        -0.699662
 H        -1.838987        -0.107322         1.972731
 H        -2.334711        -1.823890         1.257562
 H         0.208692        -2.875769         1.038592
 H        -0.658077        -1.589300        -1.663885
 H        -2.203496        -2.983302        -1.573322
