19
Iteration:  1858
 C         1.495230         0.543624        -0.238009
 C         0.051185         0.176369         0.105472
 C        -1.001151         0.842726        -0.265725
 C        -2.142012        -0.163278        -0.236397
 C        -1.879866        -0.681534         1.107340
 C        -0.470764        -1.153067         0.491091
 O         0.503106        -2.038302         1.064031
 C        -1.353071        -1.393575        -0.830370
 O        -1.821680        -2.828838        -0.706513
 H         1.597050         0.445491        -1.391651
 H         1.509568         1.536795         0.113737
 H         2.211761        -0.137272         0.281646
 H        -1.119518         1.697556        -0.909272
 H        -3.075115         0.159940        -0.686588
 H        -1.749037         0.033247         1.926245
 H        -2.480654        -1.593573         1.504467
 H         0.177210        -2.959159         1.087930
 H        -0.776771        -1.152423        -1.751617
 H        -2.540461        -3.075349        -1.357365
