19
Iteration:  4796charge 0 multiplicity 1
 C         1.648754         0.514739        -0.080497
 C         0.290048         0.021854        -0.354775
 C        -0.581516         0.141618        -1.434534
 C        -1.855618        -0.597212        -0.952240
 C        -2.047385        -0.169842         0.522779
 C        -0.607624        -0.848164         0.645264
 O        -0.111262        -1.214865         1.928538
 C        -1.190181        -1.903271        -0.398104
 O        -2.123062        -2.911901         0.086942
 H         2.367401        -0.273631        -0.064274
 H         1.781711         1.045331        -1.049353
 H         1.793264         1.266519         0.679374
 H        -0.193991         0.508497        -2.470896
 H        -2.712361        -0.501646        -1.633994
 H        -2.042994         1.001513         0.602938
 H        -2.775629        -0.817985         0.978833
 H         0.900789        -1.007315         1.902443
 H        -0.561929        -2.431236        -1.071618
 H        -1.669000        -3.533422         0.669364
