19
Iteration:  2378charge 0 multiplicity 1
 C         1.485662         0.708931        -0.043400
 C         0.038859         0.266456         0.067183
 C        -1.079052         0.895624        -0.200182
 C        -2.107894        -0.181875        -0.006024
 C        -1.703596        -0.864292         1.309180
 C        -0.446658        -1.271310         0.471566
 O         0.570536        -2.269525         0.724726
 C        -1.415814        -1.390579        -0.808432
 O        -1.994066        -2.615145        -0.879869
 H         1.495764         1.726135         0.451188
 H         2.129237        -0.075900         0.345764
 H         1.596166         0.891367        -1.110457
 H        -1.363063         1.851817        -0.745269
 H        -3.191062         0.081252        -0.066981
 H        -1.512039        -0.328369         2.296936
 H        -2.474182        -1.719990         1.578202
 H         0.527416        -2.838554        -0.145495
 H        -0.896470        -1.268075        -1.760606
 H        -1.749148        -2.987142        -1.710845
