19
Iteration:  1200charge 0 multiplicity 1
 C         1.483148         0.634009        -0.008501
 C         0.117327         0.234295        -0.028272
 C        -1.042964         0.734087        -0.576164
 C        -2.174780        -0.185456        -0.231780
 C        -1.688044        -0.619854         1.202337
 C        -0.457459        -1.068215         0.515637
 O         0.384048        -2.079670         1.026864
 C        -1.313590        -1.566894        -0.778095
 O        -1.919453        -2.835605        -0.657815
 H         1.964111         0.826836        -1.042964
 H         1.780750         1.553212         0.319278
 H         2.237697         0.002153         0.550108
 H        -1.009886         1.549319        -1.366498
 H        -3.147084        -0.126176        -0.747825
 H        -1.734581         0.182658         1.970269
 H        -2.495068        -1.308027         1.628028
 H         0.720664        -2.748487         0.322556
 H        -0.952876        -1.403833        -1.818946
 H        -2.838100        -2.697601        -0.723813
