19
Iteration:  4116charge 0 multiplicity 1
 C         1.618315         0.384447        -0.190997
 C         0.178648         0.029985        -0.191631
 C        -0.771486         0.496155        -1.053925
 C        -2.010714        -0.300320        -0.697416
 C        -2.040773        -0.427792         0.783392
 C        -0.611465        -0.964524         0.614346
 O         0.041658        -1.489305         1.694466
 C        -1.197988        -1.684934        -0.609996
 O        -1.824305        -2.887373        -0.155658
 H         2.309449        -0.413989        -0.068198
 H         1.935499         0.876948        -1.107800
 H         1.925717         1.120350         0.576671
 H        -0.678300         0.783528        -2.175183
 H        -2.922667        -0.357312        -1.252871
 H        -2.314492         0.458089         1.483355
 H        -2.696112        -1.226784         1.008156
 H         1.065946        -1.491625         1.458509
 H        -0.578297        -1.818454        -1.455797
 H        -2.467106        -3.155378        -0.768951
