19
Iteration:  4545
 C         1.650486         0.468252        -0.062444
 C         0.200636         0.165645        -0.286640
 C        -0.755807         0.339089        -1.277130
 C        -1.919139        -0.556836        -0.907824
 C        -2.058590        -0.238848         0.590413
 C        -0.594898        -0.825889         0.526425
 O        -0.063572        -1.551321         1.699438
 C        -1.113330        -1.803571        -0.464558
 O        -1.988233        -2.813690         0.122196
 H         1.887784        -0.064709         0.863894
 H         2.344789         0.102198        -0.901577
 H         1.721362         1.575307         0.236240
 H        -0.538022         0.596573        -2.312528
 H        -2.601545        -0.820544        -1.684952
 H        -2.236102         0.821278         0.763143
 H        -2.865410        -0.782643         1.142322
 H         0.970030        -1.487643         1.883338
 H        -0.424969        -2.320025        -1.248170
 H        -1.323147        -3.206267         0.848210
