19
Iteration:  4884charge 0 multiplicity 1
 C         1.650677         0.318621        -0.194681
 C         0.229284         0.059137        -0.286996
 C        -0.641831         0.171907        -1.303551
 C        -1.799707        -0.672822        -0.955451
 C        -2.099121        -0.162623         0.412141
 C        -0.670632        -0.793795         0.622643
 O        -0.069224        -0.979146         1.910624
 C        -1.064422        -1.963246        -0.401703
 O        -1.961095        -2.922486         0.179798
 H         2.144798         0.742025        -1.016886
 H         1.771395         1.066901         0.630182
 H         2.141344        -0.604001         0.070055
 H        -0.465968         0.613287        -2.219973
 H        -2.576534        -0.708345        -1.756556
 H        -2.342729         0.955598         0.550386
 H        -2.827286        -0.780577         0.850850
 H        -0.512757        -1.861901         2.255963
 H        -0.244585        -2.341358        -0.997721
 H        -2.816286        -2.985109        -0.351845
