19
Iteration:  1779
 C         1.501112         0.646530         0.173150
 C         0.123701         0.154907        -0.173090
 C        -1.012749         0.785504        -0.496554
 C        -2.124366        -0.214697        -0.260113
 C        -1.657290        -0.618844         1.233401
 C        -0.434144        -1.170416         0.337944
 O         0.545516        -1.980664         0.936058
 C        -1.476763        -1.569764        -0.739586
 O        -2.108009        -2.806731        -0.732441
 H         1.565885         1.718510        -0.209302
 H         1.625509         0.442862         1.196392
 H         2.250502         0.034331        -0.336380
 H        -1.097109         1.847154        -0.758577
 H        -3.152080         0.110308        -0.458842
 H        -1.531368         0.277493         1.874920
 H        -2.274595        -1.446592         1.593640
 H         0.148680        -2.499552         1.646111
 H        -1.068562        -1.429752        -1.754431
 H        -1.461931        -3.482081        -0.838944
