19
Iteration:  4250charge 0 multiplicity 1
 C         1.531404         0.687253         0.003705
 C         0.172915         0.064395        -0.267642
 C        -0.718150         0.400046        -1.272417
 C        -1.952343        -0.450310        -0.822349
 C        -1.897896        -0.296660         0.821743
 C        -0.500097        -0.945044         0.609276
 O         0.104115        -1.673259         1.580001
 C        -1.193568        -1.811970        -0.587179
 O        -2.120225        -2.863699        -0.061182
 H         1.611161         1.743035        -0.098906
 H         1.746706         0.425683         1.035725
 H         2.287017         0.203446        -0.644569
 H        -0.609191         1.137030        -2.040940
 H        -2.859497        -0.320732        -1.464515
 H        -1.923741         0.654131         1.259312
 H        -2.616806        -0.984085         1.400724
 H         0.598594        -0.952806         2.157455
 H        -0.501213        -2.174455        -1.292204
 H        -1.756980        -3.778371        -0.287420
