19
Iteration:     8charge 0 multiplicity 1
 C         1.527087         0.717750         0.131135
 C         0.071164         0.252309         0.155254
 C        -1.117942         0.874543        -0.010131
 C        -2.197902        -0.254951        -0.003116
 C        -1.646075        -1.027573         1.265339
 C        -0.360614        -1.184210         0.318910
 O         0.517752        -2.240650         0.367823
 C        -1.415159        -1.311298        -0.882523
 O        -2.131545        -2.562166        -0.877840
 H         2.163315         0.484484         0.979147
 H         2.229485         0.258856        -0.614026
 H         1.723645         1.862629         0.118465
 H        -1.312973         2.001742         0.119468
 H        -3.269255        -0.048752        -0.178632
 H        -1.330883        -0.673964         2.284126
 H        -2.200226        -2.029939         1.375917
 H         0.805440        -2.419577         1.318366
 H        -0.842857        -0.952604        -1.788541
 H        -1.444110        -3.301102        -1.053042
