19
Iteration:  3844charge 0 multiplicity 1
 C         1.500122         0.446132        -0.090870
 C         0.073596         0.169797        -0.211113
 C        -0.926108         0.626845        -1.051787
 C        -2.030863        -0.288722        -0.635059
 C        -1.883833        -0.413634         0.996594
 C        -0.505389        -1.025053         0.575371
 O         0.160286        -1.761470         1.579999
 C        -1.226334        -1.679015        -0.660933
 O        -1.892129        -2.877632        -0.421810
 H         1.987131        -0.026441         0.775331
 H         2.066008        -0.040903        -0.889739
 H         1.870130         1.529514        -0.045418
 H        -0.625057         1.349566        -1.751714
 H        -3.021807        -0.247610        -1.172243
 H        -1.879063         0.557568         1.601156
 H        -2.468011        -1.189193         1.428539
 H         1.072520        -1.675226         1.564470
 H        -0.493288        -1.808304        -1.524371
 H        -1.788940        -3.122567         0.554923
