19
Iteration:  2319charge 0 multiplicity 1
 C         1.435092         0.518730        -0.105186
 C         0.081537         0.237768         0.028102
 C        -1.104383         0.902586        -0.155947
 C        -2.269508        -0.141595         0.064299
 C        -1.762988        -0.985569         1.276971
 C        -0.440886        -1.210132         0.396599
 O         0.628831        -2.103818         0.767108
 C        -1.356267        -1.316005        -0.882336
 O        -1.880899        -2.639639        -0.858488
 H         1.765568         0.978224         0.771118
 H         2.120684        -0.364514        -0.173654
 H         1.746055         1.221422        -0.892679
 H        -1.273470         1.770214        -0.768260
 H        -3.300926         0.120890        -0.138354
 H        -1.625054        -0.446938         2.209081
 H        -2.219838        -1.941076         1.408709
 H         0.222506        -2.890834         1.185191
 H        -0.794871        -0.967851        -1.787337
 H        -2.548651        -2.515660        -1.698891
