19
Iteration:   732charge 0 multiplicity 1
 C         1.493971         0.724603        -0.033142
 C         0.121265         0.274787         0.015872
 C        -1.119507         0.895513        -0.234691
 C        -2.135784        -0.246195        -0.095091
 C        -1.676709        -0.881377         1.255979
 C        -0.415636        -1.243180         0.313601
 O         0.520770        -2.169897         0.699415
 C        -1.355458        -1.456651        -0.812233
 O        -2.128517        -2.637398        -0.772902
 H         2.135096         0.222710         0.682378
 H         2.118627         0.463179        -0.974556
 H         1.771899         1.757567         0.223309
 H        -1.358891         1.908997        -0.658749
 H        -3.149172         0.026269        -0.329184
 H        -1.262257        -0.328723         2.077196
 H        -2.248022        -1.829157         1.599807
 H         0.425187        -2.303824         1.698774
 H        -1.039448        -1.446755        -1.842506
 H        -1.582075        -3.228491        -0.116928
