19
Iteration:  2781
 C         1.447285         0.645038         0.069928
 C        -0.005401         0.295346         0.052235
 C        -1.125366         0.959718        -0.237527
 C        -2.118393        -0.199009        -0.076058
 C        -1.665536        -0.860776         1.258866
 C        -0.435724        -1.185719         0.389574
 O         0.450657        -2.315407         0.741567
 C        -1.312175        -1.355363        -0.810709
 O        -1.940133        -2.638251        -0.907305
 H         2.016042        -0.299552         0.267242
 H         1.874072         1.109825        -0.794253
 H         1.694358         1.275793         0.891210
 H        -1.571450         2.018198        -0.321969
 H        -3.175342        -0.083931        -0.305847
 H        -1.555018        -0.338846         2.198797
 H        -2.168475        -1.828602         1.416709
 H         0.651761        -2.716253        -0.178596
 H        -0.983050        -1.065649        -1.775927
 H        -1.330579        -3.267290        -0.385827
