19
Iteration:  1972
 C         1.468257         0.761985         0.181486
 C         0.100180         0.223919        -0.058167
 C        -1.106024         0.793739        -0.495084
 C        -2.061390        -0.303952        -0.248436
 C        -1.574604        -0.859558         1.171010
 C        -0.386331        -1.194206         0.366345
 O         0.610094        -2.106030         0.881590
 C        -1.393640        -1.520229        -0.867451
 O        -2.231597        -2.581071        -0.613502
 H         1.876399         0.359963         1.079434
 H         2.229155         0.582353        -0.694810
 H         1.576029         1.871697         0.222569
 H        -1.231361         1.849150        -0.640526
 H        -3.106125        -0.054598        -0.480895
 H        -1.333059        -0.162984         2.051309
 H        -2.109247        -1.777606         1.541281
 H        -0.001945        -2.753888         1.376822
 H        -1.215544        -1.211151        -1.944439
 H        -2.255412        -3.393342        -1.276257
