19
Iteration:  1877
 C         1.539885         0.516068        -0.170741
 C         0.007213         0.279168        -0.026563
 C        -1.049391         0.907634        -0.478026
 C        -2.164833        -0.147302        -0.144753
 C        -1.774583        -0.808804         1.273464
 C        -0.475842        -1.135465         0.474775
 O         0.336167        -2.058398         1.026134
 C        -1.314753        -1.471331        -0.804387
 O        -1.712128        -2.752499        -0.723224
 H         1.860662        -0.059908        -1.099539
 H         1.849410         1.554645        -0.116697
 H         2.076586        -0.026003         0.632098
 H        -1.143194         1.918570        -0.878692
 H        -3.218205         0.080381        -0.340399
 H        -1.720931        -0.215949         2.183095
 H        -2.237737        -1.794790         1.414233
 H        -0.146843        -2.858496         1.105002
 H        -1.006552        -1.324313        -1.838371
 H        -2.460261        -2.838729        -1.261577
