19
Iteration:  4158charge 0 multiplicity 1
 C         1.591122         0.356707        -0.017163
 C         0.110642         0.076379        -0.308188
 C        -0.922333         0.504641        -1.101963
 C        -1.965694        -0.482473        -0.724812
 C        -1.895038        -0.154236         0.818921
 C        -0.569056        -0.963378         0.563913
 O         0.063739        -1.489918         1.629364
 C        -1.188668        -1.767371        -0.523649
 O        -1.877082        -2.920214        -0.179838
 H         2.129201        -0.198594        -0.831574
 H         1.738626         1.427514        -0.208275
 H         1.964422         0.073068         0.962567
 H        -0.809473         1.318742        -1.880577
 H        -2.941310        -0.479436        -1.163590
 H        -1.818568         0.944687         1.176268
 H        -2.664894        -0.621631         1.350424
 H         0.720044        -2.093180         1.362592
 H        -0.404695        -2.028254        -1.334722
 H        -1.804045        -3.480428        -0.952994
