19
Iteration:    29
 C         1.530560         0.781805         0.208875
 C         0.090030         0.365508         0.176630
 C        -1.072936         0.922479         0.093748
 C        -2.068973        -0.239865        -0.086723
 C        -1.713859        -1.052747         1.152757
 C        -0.367369        -1.221961         0.225711
 O         0.485380        -2.287908         0.269357
 C        -1.457601        -1.382362        -0.868828
 O        -2.073548        -2.612889        -0.665791
 H         2.315272         0.145062         0.743792
 H         2.037491         0.731090        -0.792389
 H         1.796940         1.820939         0.672497
 H        -1.471114         1.977847        -0.116643
 H        -3.108642         0.086261        -0.285606
 H        -1.751003        -0.296923         1.977896
 H        -2.226515        -2.015008         1.485869
 H         0.481076        -2.608312         1.138318
 H        -1.211877        -1.161629        -1.952537
 H        -1.691666        -3.208795        -1.246596
