19
Iteration:   679charge 0 multiplicity 1
 C         1.589880         0.579013        -0.180232
 C         0.020149         0.265617         0.104454
 C        -1.061805         0.864872        -0.211205
 C        -2.177229        -0.229248        -0.029590
 C        -1.792205        -0.780121         1.392434
 C        -0.497455        -1.132104         0.540011
 O         0.383263        -2.161442         0.626568
 C        -1.332700        -1.385704        -0.772985
 O        -1.906653        -2.749860        -0.944320
 H         2.182212         0.985782         0.658653
 H         2.106136        -0.415075        -0.404391
 H         1.526103         1.215336        -1.076926
 H        -1.296577         1.883134        -0.653369
 H        -3.210704         0.030343        -0.178347
 H        -1.741829        -0.128848         2.307367
 H        -2.350594        -1.734875         1.828664
 H         1.024883        -1.913671         1.371782
 H        -0.815027        -1.161878        -1.696457
 H        -1.004346        -3.235804        -1.074911
