19
Iteration:  1621charge 0 multiplicity 1
 C         1.553038         0.479687        -0.241311
 C         0.112887         0.238850         0.133900
 C        -1.017301         0.896389        -0.334627
 C        -2.108797        -0.233852        -0.378097
 C        -1.834583        -0.795476         1.057719
 C        -0.514065        -1.166903         0.444036
 O         0.456078        -1.902021         1.257623
 C        -1.251285        -1.626069        -0.874546
 O        -2.084042        -2.711391        -0.740532
 H         2.145067        -0.343694        -0.014063
 H         1.671139         0.847260        -1.365435
 H         2.067235         1.235644         0.407431
 H        -0.986096         2.002489        -0.661843
 H        -3.169656         0.021899        -0.514820
 H        -1.912803        -0.013718         1.745017
 H        -2.324804        -1.692822         1.487360
 H         0.671660        -1.268635         1.890120
 H        -0.627154        -1.771982        -1.735483
 H        -1.733449        -3.576825        -1.065148
