19
Iteration:  2431
 C         1.491284         0.741545         0.110441
 C         0.094908         0.239812         0.052657
 C        -1.080683         0.902834        -0.120301
 C        -2.149252        -0.184342        -0.080519
 C        -1.629169        -0.927913         1.225693
 C        -0.347971        -1.242971         0.304010
 O         0.661027        -2.175888         0.642081
 C        -1.430546        -1.430818        -0.876586
 O        -2.188184        -2.694701        -0.820152
 H         1.453798         1.829976        -0.007092
 H         1.924509         0.535346         1.121928
 H         2.097814         0.175694        -0.583485
 H        -1.167025         2.032766        -0.149826
 H        -3.224571         0.017433        -0.241334
 H        -1.316878        -0.350319         2.110867
 H        -2.278542        -1.850687         1.380638
 H         0.454956        -2.404329         1.606387
 H        -1.316532        -1.262549        -1.962099
 H        -2.529915        -2.842061        -1.700315
