19
Iteration:  3280
 C         1.511396         0.661165         0.056773
 C         0.120395         0.209650        -0.047666
 C        -0.978196         0.806104        -0.558951
 C        -2.126804        -0.250718        -0.278963
 C        -1.821161        -0.622856         1.195299
 C        -0.452369        -1.150083         0.484202
 O         0.532095        -2.010079         0.905594
 C        -1.343069        -1.559148        -0.765852
 O        -2.076874        -2.832907        -0.639032
 H         2.286564        -0.067081         0.271664
 H         1.863233         1.218052        -0.829586
 H         1.589403         1.351899         0.904352
 H        -1.182141         1.780698        -0.989513
 H        -3.120546         0.114823        -0.628256
 H        -1.744788         0.201575         1.952720
 H        -2.500538        -1.437490         1.546285
 H         0.105986        -2.705824         1.487226
 H        -0.995111        -1.466049        -1.746590
 H        -1.467408        -3.499434        -1.128352
