19
Iteration:  1871charge 0 multiplicity 1
 C         1.487993         0.501365        -0.184028
 C         0.059159         0.232376         0.021784
 C        -1.062880         0.900229        -0.422047
 C        -2.169589        -0.124637        -0.196236
 C        -1.772370        -0.796100         1.231479
 C        -0.490174        -1.134155         0.504345
 O         0.401346        -2.054388         1.048621
 C        -1.337683        -1.447032        -0.834834
 O        -1.729546        -2.779726        -0.717309
 H         1.825577         0.241238        -1.211928
 H         1.819040         1.553856        -0.114165
 H         2.206870        -0.018105         0.482330
 H        -1.034737         1.891168        -0.860835
 H        -3.249440         0.068027        -0.247624
 H        -1.738266        -0.082998         2.080183
 H        -2.510154        -1.655759         1.309457
 H        -0.155631        -2.858248         1.069619
 H        -0.911460        -1.316789        -1.870601
 H        -2.522561        -2.924049        -1.248712
