19
Iteration:  4695charge 0 multiplicity 1
 C         1.542460         0.477939        -0.060789
 C         0.229594        -0.022263        -0.403285
 C        -0.687881         0.269289        -1.415310
 C        -1.858874        -0.545477        -0.934670
 C        -1.963418        -0.168336         0.528259
 C        -0.595553        -0.831480         0.591834
 O        -0.142339        -1.330798         1.861672
 C        -1.147912        -1.878919        -0.479278
 O        -1.971514        -2.808087         0.217161
 H         1.493861         1.487091         0.348850
 H         1.791258        -0.290735         0.666876
 H         2.329598         0.573952        -0.796334
 H        -0.416264         0.528396        -2.401891
 H        -2.565714        -0.529341        -1.761619
 H        -1.966756         0.931429         0.680252
 H        -2.714797        -0.795586         1.234065
 H         0.509834        -2.052585         1.669087
 H        -0.443835        -2.404209        -1.057029
 H        -1.397063        -3.679950         0.398362
