19
Iteration:   833
 C         1.505169         0.633281        -0.019220
 C         0.105514         0.216857         0.075316
 C        -1.029375         0.927650        -0.281027
 C        -2.148317        -0.150636        -0.189779
 C        -1.761342        -0.809005         1.177551
 C        -0.526832        -1.174203         0.395334
 O         0.541940        -2.084657         0.757043
 C        -1.382109        -1.462747        -0.858056
 O        -1.924526        -2.818458        -0.554408
 H         2.021802         0.205925        -0.872418
 H         1.761807         1.801225        -0.119768
 H         2.151112         0.353027         0.801169
 H        -0.956630         1.845264        -0.905725
 H        -3.180728         0.095362        -0.506723
 H        -1.746901        -0.013325         1.992826
 H        -2.475981        -1.661418         1.370752
 H         0.277520        -2.870915         0.314341
 H        -1.002460        -1.486252        -1.883802
 H        -2.831988        -2.860982        -0.901209
