19
Iteration:  3190charge 0 multiplicity 1
 C         1.525138         0.576528         0.016229
 C         0.088343         0.274319         0.008666
 C        -1.008229         0.877680        -0.546892
 C        -2.110791        -0.278699        -0.300197
 C        -1.809543        -0.843807         1.212103
 C        -0.470297        -1.119520         0.507245
 O         0.550621        -1.947718         0.933353
 C        -1.346196        -1.507255        -0.740075
 O        -2.021189        -2.733793        -0.649969
 H         1.722048         1.388476         0.695832
 H         2.126877        -0.270335         0.341966
 H         1.624213         0.898768        -1.044769
 H        -0.982991         1.830315        -1.133298
 H        -3.120547        -0.105595        -0.619190
 H        -1.965903        -0.258494         2.079081
 H        -2.452712        -1.762802         1.421337
 H         0.280579        -2.923894         1.183631
 H        -0.831241        -1.322599        -1.640002
 H        -2.245954        -3.177054        -1.572431
