19
Iteration:  4914
 C         1.604255         0.472610        -0.144718
 C         0.186650         0.049006        -0.362205
 C        -0.549652         0.053279        -1.461463
 C        -1.805431        -0.671491        -0.966331
 C        -2.041314        -0.084962         0.483164
 C        -0.715540        -0.797609         0.660453
 O        -0.037169        -1.136968         1.955754
 C        -1.124746        -1.943750        -0.342216
 O        -1.969639        -2.950108         0.105912
 H         1.853420         1.447161        -0.620968
 H         1.769551         0.422410         0.969778
 H         2.237988        -0.315193        -0.650876
 H        -0.331715         0.305348        -2.483071
 H        -2.634840        -0.777316        -1.640282
 H        -2.025968         0.954589         0.519723
 H        -2.862647        -0.631082         0.929748
 H        -0.500654        -0.734271         2.681463
 H        -0.161083        -2.303348        -0.832471
 H        -2.849752        -2.756935        -0.095657
