19
Iteration:   420
 C         1.483898         0.619587        -0.124147
 C         0.047499         0.260431         0.101619
 C        -1.115741         0.816149        -0.263894
 C        -2.158336        -0.252900         0.079464
 C        -1.583503        -0.954883         1.369244
 C        -0.381169        -1.192062         0.493035
 O         0.563506        -2.096150         0.787212
 C        -1.422418        -1.364694        -0.791593
 O        -2.131521        -2.557507        -1.097235
 H         2.310883        -0.201925        -0.119671
 H         1.690618         1.104161        -1.056077
 H         1.902344         1.292319         0.617026
 H        -1.333157         1.668116        -0.940504
 H        -3.238114        -0.114625        -0.065794
 H        -1.422587        -0.469693         2.286441
 H        -1.980798        -1.911595         1.614245
 H         0.318116        -2.753360         1.471403
 H        -1.078345        -0.954891        -1.758558
 H        -1.489257        -3.236440        -1.337475
