19
Iteration:  2885
 C         1.457320         0.628849        -0.019903
 C         0.063768         0.231721         0.124661
 C        -1.054363         0.850420        -0.233954
 C        -2.141361        -0.274301        -0.124675
 C        -1.720009        -0.975307         1.194025
 C        -0.378432        -1.210080         0.436380
 O         0.588987        -2.079433         0.940315
 C        -1.400953        -1.418531        -0.887154
 O        -2.093429        -2.618485        -1.011053
 H         1.659137         1.630297        -0.435467
 H         1.962657         0.694880         1.025469
 H         2.130019        -0.051704        -0.654099
 H        -1.188508         1.749687        -0.883031
 H        -3.200018         0.033417        -0.356814
 H        -1.743811        -0.384911         2.117103
 H        -2.325481        -1.873198         1.349995
 H         1.346096        -1.516451         1.277675
 H        -0.838741        -1.229919        -1.874482
 H        -2.603386        -2.749462        -0.192799
