19
Iteration:  3651charge 0 multiplicity 1
 C         1.581677         0.616447        -0.140087
 C         0.156329         0.163703        -0.003506
 C        -0.878000         0.642995        -0.803548
 C        -2.015786        -0.348972        -0.524727
 C        -1.973456        -0.500901         1.013315
 C        -0.508736        -1.034081         0.583791
 O         0.307807        -1.798804         1.344954
 C        -1.236118        -1.630058        -0.675102
 O        -2.048739        -2.841177        -0.437943
 H         2.376280         0.076969         0.434364
 H         1.749455         0.350207        -1.256894
 H         1.608211         1.717425        -0.073997
 H        -0.979497         1.460598        -1.488588
 H        -2.890055        -0.119066        -1.148137
 H        -1.969301         0.461254         1.663517
 H        -2.554659        -1.309906         1.367445
 H         0.055860        -2.779278         1.123668
 H        -0.515806        -1.768330        -1.536933
 H        -1.502742        -3.616833        -0.847357
