19
Iteration:  3821
 C         1.616283         0.607803        -0.106850
 C         0.206469         0.108926        -0.171629
 C        -0.893609         0.508994        -0.953023
 C        -2.051606        -0.335356        -0.519566
 C        -1.951212        -0.306070         0.969962
 C        -0.503562        -1.002672         0.576256
 O         0.102470        -1.780106         1.523160
 C        -1.305863        -1.700414        -0.666821
 O        -1.902872        -2.946357        -0.478047
 H         1.906232         0.946048         0.906729
 H         2.418345        -0.134964        -0.308287
 H         1.757360         1.523870        -0.785709
 H        -0.795970         1.217661        -1.746609
 H        -3.033324        -0.119950        -1.068150
 H        -1.741637         0.671000         1.418007
 H        -2.715924        -0.911189         1.478075
 H         1.075535        -1.983171         1.173589
 H        -0.672543        -1.792145        -1.633328
 H        -1.768975        -3.238622         0.445325
