19
Iteration:   728
 C         1.473061         0.697100        -0.064852
 C         0.113483         0.272174         0.035261
 C        -1.123819         0.939469        -0.254100
 C        -2.140216        -0.212585        -0.096968
 C        -1.672246        -0.932158         1.234672
 C        -0.405216        -1.228023         0.336921
 O         0.517022        -2.205636         0.700455
 C        -1.352203        -1.448926        -0.827510
 O        -2.083637        -2.627168        -0.732352
 H         2.096402         0.131307         0.807309
 H         1.984221         0.374528        -0.971395
 H         1.648154         1.815442         0.120860
 H        -1.354514         1.968400        -0.562164
 H        -3.194457         0.038928        -0.393258
 H        -1.372928        -0.369197         2.145928
 H        -2.265914        -1.739585         1.553082
 H         0.441500        -2.275324         1.629708
 H        -0.984594        -1.362488        -1.912600
 H        -1.609852        -3.168290        -0.159568
