19
Iteration:  3042charge 0 multiplicity 1
 C         1.543637         0.631556         0.139270
 C         0.096989         0.132207        -0.037891
 C        -1.065510         0.703733        -0.516570
 C        -2.117425        -0.303708        -0.095934
 C        -1.703920        -0.826902         1.216464
 C        -0.443906        -1.178997         0.413303
 O         0.680048        -1.891371         0.996753
 C        -1.435807        -1.452916        -0.892149
 O        -2.206233        -2.610550        -0.841476
 H         2.230448        -0.235016        -0.129021
 H         1.593643         1.571092        -0.496042
 H         1.588643         0.954635         1.194568
 H        -1.222528         1.655222        -0.959701
 H        -3.180470        -0.154555        -0.165917
 H        -1.515243        -0.160450         2.036908
 H        -2.267261        -1.722126         1.499312
 H         0.311469        -2.729577         1.004060
 H        -0.981659        -1.171041        -1.876903
 H        -1.586960        -3.293836        -1.188766
