19
Iteration:  1075charge 0 multiplicity 1
 C         1.575212         0.661885        -0.002315
 C         0.091342         0.207873         0.063819
 C        -1.055923         0.780628        -0.495490
 C        -2.132267        -0.250524        -0.266904
 C        -1.716342        -0.762389         1.152808
 C        -0.409695        -1.183689         0.410079
 O         0.535997        -2.011444         1.025793
 C        -1.418181        -1.528649        -0.824830
 O        -2.158156        -2.756812        -0.792755
 H         2.317737        -0.064747         0.230956
 H         1.945244         1.178998        -0.972222
 H         1.804007         1.367510         0.767208
 H        -1.014204         1.750690        -1.007250
 H        -3.147632         0.080750        -0.423177
 H        -1.557934        -0.041519         1.987506
 H        -2.289576        -1.639195         1.453123
 H         0.685769        -1.640541         1.925583
 H        -1.107230        -1.319433        -1.862698
 H        -1.858674        -3.353987        -0.158827
