19
Iteration:  4902
 C         1.616092         0.377457        -0.133902
 C         0.206011         0.023785        -0.313827
 C        -0.627542         0.144218        -1.450157
 C        -1.818962        -0.723832        -1.049306
 C        -2.098186        -0.145099         0.441279
 C        -0.662737        -0.776170         0.698065
 O        -0.000913        -1.099243         1.949106
 C        -1.089236        -1.859177        -0.291888
 O        -1.966610        -2.934096         0.106039
 H         1.867898         1.163144        -0.922624
 H         2.045455         0.790323         0.798898
 H         2.255357        -0.528609        -0.412266
 H        -0.378380         0.732336        -2.402445
 H        -2.626480        -1.012560        -1.682806
 H        -2.085012         0.886852         0.485085
 H        -2.950625        -0.400550         1.131284
 H        -0.811999        -1.092730         2.595854
 H        -0.242535        -2.441632        -0.795992
 H        -2.860007        -2.910404        -0.314255
