19
Iteration:  1372charge 0 multiplicity 1
 C         1.459147         0.509474        -0.134010
 C         0.113381         0.222197         0.066456
 C        -0.955399         0.819249        -0.565744
 C        -2.124669        -0.242490        -0.345248
 C        -1.928824        -0.638991         1.105100
 C        -0.442779        -1.050521         0.553731
 O         0.491649        -1.931841         1.207284
 C        -1.277610        -1.536455        -0.735009
 O        -1.964457        -2.846194        -0.755162
 H         1.654657         1.597227        -0.051589
 H         2.208907        -0.094042         0.453689
 H         1.676644         0.225977        -1.166696
 H        -0.989016         1.656168        -1.236249
 H        -3.101447        -0.236309        -0.839560
 H        -2.145625         0.175295         1.765906
 H        -2.571901        -1.578440         1.223847
 H         0.518315        -2.793856         0.811838
 H        -0.673809        -1.359101        -1.652393
 H        -2.086762        -2.993913         0.248780
