19
Iteration:  1857charge 0 multiplicity 1
 C         1.495981         0.550998        -0.241311
 C         0.050096         0.175270         0.110215
 C        -0.996129         0.841202        -0.257877
 C        -2.139969        -0.169225        -0.241145
 C        -1.894320        -0.673601         1.109932
 C        -0.466862        -1.164721         0.489981
 O         0.507430        -2.031251         1.062153
 C        -1.350170        -1.398035        -0.825488
 O        -1.827252        -2.825137        -0.705002
 H         1.586310         0.443458        -1.410278
 H         1.519338         1.523871         0.147076
 H         2.214629        -0.130769         0.260247
 H        -1.119432         1.692979        -0.909519
 H        -3.045267         0.165769        -0.731806
 H        -1.754841         0.048421         1.912093
 H        -2.443119        -1.601524         1.508001
 H         0.195507        -2.992051         1.087709
 H        -0.799053        -1.182080        -1.758895
 H        -2.569209        -3.071761        -1.411201
