19
Iteration:  2140charge 0 multiplicity 1
 C         1.510068         0.659774        -0.034361
 C         0.095266         0.217381         0.039416
 C        -1.079927         0.849678        -0.252995
 C        -2.115836        -0.280980        -0.126935
 C        -1.677299        -0.792641         1.352176
 C        -0.438106        -1.151979         0.352231
 O         0.514397        -2.063319         0.896355
 C        -1.370659        -1.419950        -0.852362
 O        -2.024565        -2.770712        -0.885057
 H         1.858317         0.987520        -1.063238
 H         1.731298         1.469890         0.598464
 H         2.203223        -0.124185         0.250851
 H        -1.148628         1.735366        -0.815204
 H        -3.151920         0.002067        -0.371121
 H        -1.577974        -0.047927         2.089649
 H        -2.064939        -1.701198         1.763813
 H         0.025423        -2.939498         1.059543
 H        -0.874733        -1.144216        -1.814259
 H        -2.873465        -2.735907        -1.481639
