19
Iteration:  3062
 C         1.490383         0.684445         0.049377
 C         0.095021         0.222401         0.024125
 C        -1.023961         0.869866        -0.418168
 C        -2.131980        -0.188966        -0.271259
 C        -1.675409        -0.831902         1.206350
 C        -0.370733        -1.178475         0.463573
 O         0.665937        -1.993559         1.049689
 C        -1.506311        -1.508344        -0.886790
 O        -2.213777        -2.770712        -0.800506
 H         1.971249         0.043995        -0.672592
 H         1.625222         1.787232        -0.011148
 H         1.871531         0.362255         1.040737
 H        -1.143744         1.825507        -0.793207
 H        -3.107976         0.086020        -0.571183
 H        -1.617080        -0.179155         2.021464
 H        -2.155671        -1.811845         1.505331
 H         0.446360        -2.927799         0.827695
 H        -0.925739        -1.355881        -1.890798
 H        -1.685511        -3.289667        -1.321933
