19
Iteration:  4600charge 0 multiplicity 1
 C         1.724595         0.454874        -0.110479
 C         0.203127         0.056191        -0.327380
 C        -0.733152         0.296461        -1.265357
 C        -1.976259        -0.584629        -0.842449
 C        -1.891384        -0.165248         0.607331
 C        -0.614937        -0.789452         0.640426
 O        -0.043881        -1.257789         1.899380
 C        -1.168296        -1.955293        -0.445410
 O        -2.104757        -3.003439        -0.168573
 H         2.494747        -0.128474        -0.629424
 H         1.745904         1.551408        -0.407445
 H         2.023409         0.609210         0.982903
 H        -0.626090         0.591375        -2.269736
 H        -2.914114        -0.568681        -1.327712
 H        -1.976020         0.955062         0.529964
 H        -2.609168        -0.653193         1.231033
 H         0.865361        -0.792299         2.088328
 H        -0.449713        -2.312321        -1.286437
 H        -1.683242        -3.686401         0.470520
