19
Iteration:  4360
 C         1.579954         0.458985        -0.220492
 C         0.156522         0.032789        -0.232262
 C        -0.782100         0.439640        -1.165772
 C        -1.995887        -0.323823        -0.819072
 C        -2.006946        -0.177476         0.709456
 C        -0.588987        -0.918593         0.649065
 O        -0.001220        -1.471100         1.819430
 C        -1.133722        -1.845845        -0.477655
 O        -1.854412        -3.003932        -0.213506
 H         2.286228        -0.275828         0.172353
 H         1.995937         0.868544        -1.173210
 H         1.662893         1.288907         0.539665
 H        -0.411289         0.692774        -2.206663
 H        -2.845923        -0.243877        -1.532346
 H        -2.120547         0.834786         1.074001
 H        -2.731967        -0.874287         1.263740
 H         0.521483        -2.322914         1.544611
 H        -0.396182        -2.018863        -1.297106
 H        -1.988659        -3.193448         0.755871
