19
Iteration:  2218
 C         1.460889         0.674952         0.213920
 C         0.074710         0.305984         0.020401
 C        -1.110647         0.933223        -0.360867
 C        -2.059309        -0.205700        -0.150028
 C        -1.668433        -0.783779         1.295283
 C        -0.381876        -1.161538         0.356662
 O         0.610800        -2.188445         0.640434
 C        -1.494058        -1.496389        -0.759904
 O        -2.080683        -2.787062        -0.713423
 H         2.118413        -0.223768         0.205023
 H         1.854200         1.424796        -0.439044
 H         1.628480         1.177662         1.183921
 H        -1.184916         1.894093        -0.942410
 H        -3.127598         0.139139        -0.331696
 H        -1.288292        -0.099225         2.011281
 H        -2.174543        -1.618091         1.697816
 H         0.314873        -2.930905         0.001885
 H        -1.270188        -1.302819        -1.847854
 H        -2.165085        -2.923344        -1.632122
