19
Iteration:  1512charge 0 multiplicity 1
 C         1.530742         0.670165         0.158950
 C         0.161562         0.199122        -0.125669
 C        -0.961207         0.807855        -0.600893
 C        -2.091112        -0.282843        -0.408285
 C        -1.752658        -0.786498         1.048034
 C        -0.401587        -1.100275         0.415700
 O         0.465030        -1.970609         0.969609
 C        -1.354339        -1.624844        -0.815398
 O        -2.168511        -2.702819        -0.465480
 H         1.881451         1.036397        -0.766441
 H         1.563743         1.588751         0.849206
 H         2.138536        -0.048740         0.649545
 H        -0.962107         1.708945        -1.194262
 H        -3.121830        -0.177974        -0.754294
 H        -1.709934        -0.072793         1.820635
 H        -2.336301        -1.700765         1.302729
 H         0.201622        -2.065640         1.943680
 H        -1.214042        -1.611912        -1.874422
 H        -1.723299        -3.337095         0.006828
