19
Iteration:    79
 C         1.479502         0.733679         0.286722
 C         0.154528         0.251054        -0.041086
 C        -1.154661         0.797162        -0.190536
 C        -2.142080        -0.298666         0.113566
 C        -1.515305        -0.903063         1.411568
 C        -0.347419        -1.191937         0.321630
 O         0.685039        -2.156887         0.462970
 C        -1.460468        -1.391268        -0.862653
 O        -2.315655        -2.575300        -1.012163
 H         2.263748        -0.031848         0.169115
 H         1.998426         1.562308        -0.139115
 H         1.502741         0.887163         1.307818
 H        -1.375364         1.767066        -0.638051
 H        -3.228130        -0.210790        -0.024379
 H        -1.332158        -0.296793         2.294909
 H        -2.078126        -1.756976         1.669412
 H         0.214090        -2.798831         1.037038
 H        -1.237750        -0.928029        -1.816231
 H        -1.768443        -3.303173        -1.444107
