19
Iteration:  2559charge 0 multiplicity 1
 C         1.410764         0.690490        -0.052440
 C         0.011473         0.262226         0.099045
 C        -1.122620         0.880273        -0.136951
 C        -2.134417        -0.253303         0.039245
 C        -1.612998        -0.947497         1.337215
 C        -0.334479        -1.275042         0.454207
 O         0.571377        -2.211624         0.826286
 C        -1.361104        -1.386867        -0.741282
 O        -2.101530        -2.548863        -1.123550
 H         1.660607         1.308613        -0.867155
 H         1.593306         1.286889         0.864207
 H         2.198464        -0.075320        -0.068796
 H        -1.271018         1.730529        -0.933879
 H        -3.218133        -0.176913        -0.093527
 H        -1.205105        -0.373808         2.150755
 H        -2.164720        -1.799086         1.663443
 H         0.822216        -2.669369        -0.065019
 H        -0.812493        -1.121670        -1.631797
 H        -2.362239        -2.452607        -2.122090
