19
Iteration:  4157
 C         1.594295         0.356859        -0.017607
 C         0.106579         0.087867        -0.304475
 C        -0.917676         0.496604        -1.104962
 C        -1.963419        -0.478978        -0.722865
 C        -1.890281        -0.150467         0.823016
 C        -0.573260        -0.965645         0.560619
 O         0.058581        -1.491428         1.627403
 C        -1.179939        -1.766587        -0.525499
 O        -1.876667        -2.923490        -0.177132
 H         2.111052        -0.250968        -0.838882
 H         1.743401         1.425733        -0.236286
 H         1.937241         0.058341         0.969468
 H        -0.851200         1.338703        -1.825125
 H        -2.955868        -0.488343        -1.161955
 H        -1.819549         0.941956         1.159478
 H        -2.678085        -0.613698         1.362731
 H         0.720887        -2.048858         1.363603
 H        -0.391606        -2.037972        -1.353914
 H        -1.814272        -3.498244        -0.984730
