19
Iteration:  4206
 C         1.614653         0.650631        -0.104653
 C         0.230460         0.103189        -0.187834
 C        -0.713014         0.423763        -1.115584
 C        -1.950312        -0.462490        -0.796896
 C        -1.960514        -0.382998         0.803534
 C        -0.581466        -0.962985         0.578447
 O         0.185852        -1.555370         1.566778
 C        -1.213800        -1.802591        -0.567732
 O        -2.105710        -2.850418        -0.093900
 H         1.900958         0.950253        -1.085459
 H         1.598820         1.461582         0.635790
 H         2.305256        -0.140744         0.273522
 H        -0.539958         0.990867        -2.018445
 H        -2.868366        -0.467100        -1.428112
 H        -2.043501         0.589513         1.230964
 H        -2.638085        -1.121738         1.371672
 H        -0.452851        -1.688194         2.395179
 H        -0.590397        -2.163690        -1.324838
 H        -2.029959        -3.572526        -0.775707
