19
Iteration:  2697charge 0 multiplicity 1
 C         1.448830         0.815567         0.258157
 C         0.106404         0.179649        -0.050889
 C        -1.107796         0.752059        -0.278865
 C        -2.128570        -0.283614         0.018847
 C        -1.542760        -0.927597         1.271224
 C        -0.306365        -1.237565         0.320615
 O         0.513732        -2.257486         0.686876
 C        -1.441371        -1.318612        -0.859911
 O        -2.218325        -2.558015        -0.916116
 H         1.340843         1.387042         1.219432
 H         2.009646        -0.102441         0.485303
 H         1.875999         1.512836        -0.541470
 H        -1.392335         1.718503        -0.857212
 H        -3.168353        -0.057469         0.077601
 H        -1.372606        -0.129038         2.083478
 H        -1.872865        -1.889264         1.607145
 H         1.388457        -1.906972         0.904561
 H        -1.204430        -0.870769        -1.901321
 H        -1.641183        -3.246386        -1.449644
