19
Iteration:  2213
 C         1.476871         0.663561         0.213753
 C         0.027548         0.308923         0.059448
 C        -1.095723         0.944004        -0.383683
 C        -2.098504        -0.195116        -0.169227
 C        -1.642467        -0.800119         1.304777
 C        -0.361772        -1.129383         0.370818
 O         0.601889        -2.198517         0.607214
 C        -1.455406        -1.490229        -0.769457
 O        -2.081508        -2.778174        -0.696133
 H         2.119853        -0.220915         0.083346
 H         1.827377         1.494948        -0.467069
 H         1.742714         0.996219         1.237853
 H        -1.247182         1.924725        -0.786677
 H        -3.109145         0.001864        -0.440024
 H        -1.439120         0.063018         2.027398
 H        -2.335929        -1.585767         1.789986
 H         0.369578        -2.971663         0.086517
 H        -1.143389        -1.457286        -1.813739
 H        -2.273668        -3.104508        -1.688536
