19
Iteration:  2793charge 0 multiplicity 1
 C         1.482517         0.645589         0.062218
 C         0.056781         0.307977         0.013575
 C        -1.213978         0.903362        -0.171735
 C        -2.194310        -0.194293         0.002269
 C        -1.641526        -0.829524         1.269645
 C        -0.370388        -1.132275         0.404885
 O         0.362870        -2.335841         0.749999
 C        -1.312422        -1.388118        -0.862938
 O        -1.898422        -2.682954        -0.978150
 H         2.107095        -0.279557        -0.108434
 H         1.718249         1.379476        -0.699166
 H         1.716584         1.034193         1.042736
 H        -1.131628         1.968212        -0.634712
 H        -3.244308         0.014787        -0.066958
 H        -1.568988        -0.010508         2.007362
 H        -2.229494        -1.667268         1.609848
 H         1.024249        -2.499996         0.118920
 H        -0.871531        -1.038812        -1.792864
 H        -1.598497        -3.223590        -0.327830
