19
Iteration:   120
 C         1.481348         0.669119         0.003826
 C         0.097364         0.115392         0.068874
 C        -1.103805         0.845992        -0.088429
 C        -2.136887        -0.261060         0.059000
 C        -1.655535        -1.091202         1.274415
 C        -0.360849        -1.260616         0.365666
 O         0.755042        -2.002178         0.738236
 C        -1.425734        -1.319813        -0.919743
 O        -2.277983        -2.486733        -0.954629
 H         1.937897         0.558570        -0.960978
 H         1.399085         1.773925         0.204170
 H         1.982786         0.043172         0.852059
 H        -1.175388         1.901361        -0.302750
 H        -3.158092         0.039692        -0.139943
 H        -1.609538        -0.526135         2.241581
 H        -2.151338        -2.081480         1.466638
 H         0.687713        -3.006498         0.721294
 H        -1.112512        -1.017206        -1.939371
 H        -2.142334        -3.092234        -1.724858
