19
Iteration:  1723
 C         1.516870         0.714738         0.138811
 C         0.149418         0.231277        -0.061244
 C        -1.001580         0.831855        -0.576721
 C        -2.072522        -0.240261        -0.328041
 C        -1.766920        -0.833518         1.122431
 C        -0.445217        -1.155320         0.405156
 O         0.392314        -2.166678         0.835526
 C        -1.319168        -1.456151        -0.878741
 O        -2.101464        -2.683243        -0.449485
 H         1.479145         1.516238         0.929165
 H         2.225244         0.057109         0.639826
 H         1.985349         1.129793        -0.751370
 H        -0.928187         1.844713        -1.015675
 H        -3.128822        -0.017482        -0.639743
 H        -1.973941         0.001577         1.834966
 H        -2.295183        -1.718010         1.356624
 H         0.835724        -2.040424         1.750693
 H        -1.035340        -1.689305        -1.886869
 H        -1.515830        -3.465150        -0.137957
