19
Iteration:  3470
 C         1.489234         0.636904         0.087980
 C         0.098563         0.283245        -0.108166
 C        -0.999270         0.704696        -0.792527
 C        -2.075056        -0.287138        -0.469816
 C        -1.826613        -0.577540         1.132046
 C        -0.450083        -1.081944         0.510421
 O         0.388998        -2.065111         1.160587
 C        -1.276397        -1.563553        -0.727444
 O        -1.990508        -2.820776        -0.505566
 H         2.022334        -0.222481         0.555451
 H         2.034122         0.601224        -0.855020
 H         1.687023         1.633037         0.511579
 H        -1.233504         1.616576        -1.370296
 H        -3.028758        -0.225905        -0.938777
 H        -1.814162         0.248809         1.865484
 H        -2.568657        -1.395371         1.402259
 H         0.835776        -1.611087         1.807167
 H        -0.658268        -1.546559        -1.571685
 H        -2.138758        -3.171056        -1.342142
