19
Iteration:  3341
 C         1.598885         0.575630        -0.090162
 C         0.073179         0.234000        -0.046096
 C        -1.050868         0.776920        -0.605994
 C        -2.127223        -0.263804        -0.335271
 C        -1.831712        -0.688418         1.167573
 C        -0.522578        -1.096025         0.551978
 O         0.431872        -1.929100         1.102380
 C        -1.244476        -1.511072        -0.725523
 O        -1.917988        -2.840175        -0.652902
 H         1.966130         0.703650        -1.116903
 H         1.547283         1.438417         0.561456
 H         2.107179        -0.250888         0.470906
 H        -1.080651         1.850051        -1.046384
 H        -3.146509        -0.088736        -0.612565
 H        -1.726790        -0.016998         1.998585
 H        -2.302128        -1.657454         1.484431
 H         0.303212        -2.918113         0.778195
 H        -0.679687        -1.348754        -1.729117
 H        -2.905965        -2.593056        -0.846199
