19
Iteration:  3729charge 0 multiplicity 1
 C         1.555730         0.569410         0.115387
 C         0.089857         0.108957        -0.197825
 C        -0.912855         0.684127        -0.891487
 C        -2.098398        -0.285426        -0.612909
 C        -1.920475        -0.376046         0.994601
 C        -0.500480        -1.046132         0.550750
 O         0.480432        -1.767474         1.289493
 C        -1.291283        -1.729622        -0.689356
 O        -1.953636        -2.954577        -0.362946
 H         2.049691         0.672598        -0.876732
 H         1.433771         1.559863         0.677347
 H         1.942941        -0.245937         0.677282
 H        -0.706649         1.120035        -1.889938
 H        -2.985642        -0.138933        -1.148615
 H        -1.772485         0.648018         1.384016
 H        -2.699934        -0.988935         1.487940
 H         0.023448        -2.308039         1.931078
 H        -0.758006        -1.900815        -1.668478
 H        -2.970463        -2.834336        -0.490379
