19
Iteration:  4409
 C         1.630257         0.409096        -0.092408
 C         0.194629         0.102721        -0.352106
 C        -0.749836         0.436988        -1.229244
 C        -2.005760        -0.423032        -0.836891
 C        -2.001704        -0.367771         0.767953
 C        -0.564210        -0.809478         0.616971
 O         0.003595        -1.371928         1.793216
 C        -1.171772        -1.843990        -0.581392
 O        -1.901587        -3.017303        -0.055719
 H         2.359330         0.337076        -0.964142
 H         1.819326         1.467598         0.063798
 H         1.976611        -0.072942         0.802744
 H        -0.665518         0.680180        -2.235906
 H        -2.846421        -0.152952        -1.492278
 H        -2.057380         0.620316         1.364208
 H        -2.694904        -1.053855         1.232173
 H         0.750406        -1.824143         1.455691
 H        -0.375959        -1.929859        -1.335621
 H        -2.845744        -2.757390        -0.046260
