19
Iteration:  2432
 C         1.483360         0.730990         0.116643
 C         0.084961         0.240865         0.047703
 C        -1.068863         0.898241        -0.124872
 C        -2.150253        -0.182926        -0.079468
 C        -1.624669        -0.923462         1.232512
 C        -0.351807        -1.230270         0.302232
 O         0.664555        -2.178421         0.637589
 C        -1.433681        -1.430643        -0.868491
 O        -2.183428        -2.694641        -0.822148
 H         1.445301         1.844131        -0.009982
 H         1.919691         0.560708         1.112258
 H         2.092205         0.153154        -0.557991
 H        -1.165399         2.041174        -0.150387
 H        -3.241561        -0.002643        -0.263985
 H        -1.269598        -0.357812         2.133960
 H        -2.304469        -1.857896         1.342465
 H         0.479965        -2.394468         1.641713
 H        -1.328007        -1.284708        -1.944622
 H        -2.548538        -2.836508        -1.754217
