19
Iteration:  3396charge 0 multiplicity 1
 C         1.561684         0.613908        -0.084727
 C         0.112394         0.221275        -0.141133
 C        -1.037951         0.776686        -0.603106
 C        -2.070722        -0.270182        -0.311523
 C        -1.825785        -0.661311         1.179753
 C        -0.433277        -1.097691         0.503712
 O         0.355722        -1.943395         1.186877
 C        -1.226354        -1.538666        -0.699179
 O        -2.014632        -2.833274        -0.754052
 H         1.502091         1.728145         0.133967
 H         2.056903         0.124153         0.794144
 H         2.029972         0.507672        -1.147684
 H        -1.147593         1.643294        -1.282753
 H        -2.932558        -0.113714        -0.904942
 H        -1.841807         0.087156         1.913592
 H        -2.272755        -1.701182         1.416536
 H        -0.092562        -2.639670         1.772357
 H        -0.803013        -1.348094        -1.790934
 H        -1.875701        -3.252313         0.168866
