19
Iteration:  2170
 C         1.512467         0.647359         0.084780
 C         0.071794         0.243057        -0.033003
 C        -1.025721         0.941032        -0.288659
 C        -2.183309        -0.117207        -0.142806
 C        -1.778857        -0.921510         1.219486
 C        -0.444933        -1.202342         0.309236
 O         0.612515        -2.150155         0.755430
 C        -1.442911        -1.355070        -0.891468
 O        -1.947399        -2.769434        -0.619409
 H         2.086218         0.427743        -0.841478
 H         1.616823         1.713480         0.404345
 H         2.078213         0.118590         0.846485
 H        -1.057793         1.980756        -0.681592
 H        -3.203880         0.146879        -0.346788
 H        -1.753230        -0.390731         2.234558
 H        -2.286887        -1.949442         1.267815
 H         0.143534        -2.838356         1.155117
 H        -1.054202        -1.155736        -1.902215
 H        -2.662866        -3.028680        -1.282347
