19
Iteration:  4717
 C         1.633536         0.515826         0.018788
 C         0.236579        -0.003147        -0.339691
 C        -0.579682         0.051820        -1.482678
 C        -1.929255        -0.563380        -0.907610
 C        -2.036655        -0.071105         0.541191
 C        -0.616991        -0.878657         0.591046
 O        -0.075337        -1.275345         1.800064
 C        -1.220557        -1.838495        -0.420096
 O        -1.999338        -2.867922         0.136602
 H         1.591907         1.276156         0.774965
 H         2.445494        -0.206072         0.121406
 H         1.801858         1.152371        -0.835708
 H        -0.297849         0.730573        -2.219673
 H        -2.745787        -0.653554        -1.603252
 H        -2.171449         0.980697         0.831732
 H        -2.855169        -0.735705         1.088355
 H         0.617639        -1.971733         1.606997
 H        -0.567461        -2.232366        -1.162213
 H        -1.446301        -3.455029         0.558994
