19
Iteration:   791charge 0 multiplicity 1
 C         1.467407         0.695616         0.112477
 C         0.115589         0.136673        -0.096458
 C        -1.099168         0.771174        -0.449289
 C        -2.109345        -0.298101        -0.084119
 C        -1.588472        -0.856694         1.253195
 C        -0.345326        -1.210571         0.386386
 O         0.667700        -2.003407         0.811780
 C        -1.413812        -1.489188        -0.818740
 O        -2.282967        -2.577377        -0.738769
 H         2.209693        -0.094908         0.270596
 H         1.621222         1.550548        -0.586298
 H         1.328382         1.281883         1.003804
 H        -1.209992         1.738982        -0.991445
 H        -3.205465        -0.134423        -0.219538
 H        -1.208536        -0.151003         2.094380
 H        -2.036398        -1.770506         1.736905
 H         0.381429        -2.761332         1.314440
 H        -0.924524        -1.229513        -1.767106
 H        -2.392658        -2.987116        -1.548447
