19
Iteration:  1758charge 0 multiplicity 1
 C         1.508780         0.649687         0.221638
 C         0.087954         0.230078        -0.080115
 C        -1.021178         0.831713        -0.595098
 C        -2.099241        -0.202380        -0.272745
 C        -1.751863        -0.580542         1.202862
 C        -0.448574        -1.138200         0.465956
 O         0.558825        -2.110261         0.774185
 C        -1.317849        -1.564271        -0.800285
 O        -2.172841        -2.831438        -0.642556
 H         1.393489         1.786797         0.351085
 H         1.791716         0.089802         1.041817
 H         2.229619         0.465535        -0.589295
 H        -1.131232         1.826602        -1.047879
 H        -3.155799        -0.105143        -0.525525
 H        -1.580106         0.364327         1.770700
 H        -2.366263        -1.360362         1.715276
 H         0.538330        -2.682962         1.610068
 H        -0.908340        -1.404115        -1.804540
 H        -1.447763        -3.494976        -0.223551
