19
Iteration:  2363charge 0 multiplicity 1
 C         1.527657         0.664784        -0.091058
 C         0.096261         0.197250         0.104554
 C        -1.157199         0.863425        -0.151109
 C        -2.213118        -0.220601         0.030454
 C        -1.692769        -0.816685         1.394779
 C        -0.444384        -1.171282         0.412533
 O         0.481753        -2.173747         0.721220
 C        -1.361141        -1.356635        -0.779630
 O        -1.965192        -2.723214        -0.960798
 H         1.818280         1.401776         0.589516
 H         2.257948        -0.154832         0.229326
 H         1.919256         0.894870        -1.089798
 H        -1.186856         1.822789        -0.561449
 H        -3.203706        -0.018796        -0.304130
 H        -1.451807         0.034558         2.002781
 H        -2.245259        -1.628675         1.805492
 H         0.653315        -2.785037        -0.063749
 H        -1.053388        -0.870116        -1.756303
 H        -1.801176        -3.136750        -1.935622
