19
Iteration:   136charge 0 multiplicity 1
 C         1.570802         0.686104        -0.101274
 C         0.113053         0.215146         0.136037
 C        -1.121220         0.863896         0.002919
 C        -2.145818        -0.236862        -0.021276
 C        -1.762301        -1.153553         1.190582
 C        -0.390932        -1.200776         0.415736
 O         0.722188        -2.082064         0.690805
 C        -1.402396        -1.345636        -0.779423
 O        -2.164734        -2.508894        -0.899782
 H         1.664800         0.645816        -1.275259
 H         1.579048         1.654085         0.324939
 H         2.244858         0.012659         0.351264
 H        -1.369084         1.817486        -0.518023
 H        -3.237628        -0.082465        -0.188911
 H        -1.770302        -0.796935         2.204846
 H        -2.404777        -2.009443         1.092193
 H         0.281014        -2.912640         0.901578
 H        -0.938649        -1.052041        -1.719602
 H        -2.253463        -2.618653        -1.822516
