19
Iteration:  1123charge 0 multiplicity 1
 C         1.475483         0.495253        -0.144533
 C         0.072982         0.213131         0.018374
 C        -1.068570         0.788066        -0.526575
 C        -2.166047        -0.270204        -0.197405
 C        -1.789038        -0.689213         1.250763
 C        -0.440543        -1.118373         0.533918
 O         0.532141        -1.995963         1.090424
 C        -1.324049        -1.466860        -0.781465
 O        -2.023648        -2.695939        -0.845025
 H         2.030959        -0.251492        -0.843514
 H         1.673493         1.425801        -0.582640
 H         2.226291         0.366708         0.680812
 H        -1.189438         1.621788        -1.177975
 H        -3.229832        -0.155094        -0.471243
 H        -1.642953         0.167232         1.930164
 H        -2.336648        -1.588414         1.758380
 H         0.274890        -2.268937         1.999231
 H        -0.766766        -1.234565        -1.722226
 H        -1.263838        -3.294233        -1.208189
