19
Iteration:  2911
 C         1.493203         0.616202         0.045740
 C         0.063700         0.232513        -0.047299
 C        -1.082670         0.830843        -0.341826
 C        -2.196761        -0.159178        -0.033562
 C        -1.702447        -0.808135         1.304958
 C        -0.434490        -1.176837         0.451153
 O         0.491431        -2.159320         0.868174
 C        -1.395568        -1.449061        -0.798798
 O        -1.938719        -2.745833        -1.066630
 H         1.688659         1.690455         0.356605
 H         2.101956         0.011021         0.794851
 H         2.083659         0.614964        -0.901329
 H        -1.321304         1.893247        -0.526425
 H        -3.174938         0.189358        -0.276174
 H        -1.735418        -0.251688         2.243829
 H        -2.333377        -1.759889         1.506883
 H         1.289844        -1.646305         1.139671
 H        -0.898935        -1.145274        -1.682716
 H        -2.444181        -3.025349        -0.338530
