19
Iteration:  2709
 C         1.404938         0.711168         0.280381
 C         0.058302         0.197472        -0.019954
 C        -1.151109         0.801171        -0.257900
 C        -2.106002        -0.333998        -0.014308
 C        -1.472491        -0.935408         1.240817
 C        -0.350027        -1.206750         0.296596
 O         0.536148        -2.193039         0.717253
 C        -1.397767        -1.436191        -0.870501
 O        -2.239457        -2.463005        -0.923927
 H         1.462456         1.166447         1.272409
 H         2.300609         0.072130         0.193803
 H         1.707247         1.511983        -0.497161
 H        -1.309886         1.840148        -0.635366
 H        -3.166685        -0.174506        -0.130788
 H        -1.188228        -0.248741         2.122324
 H        -2.172003        -1.685811         1.573425
 H         1.523616        -1.904333         0.578394
 H        -0.989574        -1.173480        -1.908326
 H        -1.717959        -3.345184        -1.012517
