19
Iteration:  4643charge 0 multiplicity 1
 C         1.613836         0.460859        -0.172337
 C         0.175353        -0.014544        -0.279609
 C        -0.583300         0.244370        -1.334027
 C        -1.870285        -0.546417        -0.904383
 C        -2.066953        -0.255394         0.558723
 C        -0.574556        -0.842485         0.699407
 O         0.001801        -1.177000         1.928511
 C        -1.162140        -1.882243        -0.446978
 O        -2.124021        -2.875685        -0.050692
 H         1.749183         0.967080        -1.115512
 H         1.624015         1.163827         0.754146
 H         2.459555        -0.256832         0.033252
 H        -0.279261         0.430839        -2.329285
 H        -2.754978        -0.666799        -1.442385
 H        -2.283648         0.730664         1.080278
 H        -2.936250        -0.817293         1.001895
 H         1.045919        -1.279461         1.810515
 H        -0.380741        -2.428219        -1.075157
 H        -1.652197        -3.815802        -0.050113
