19
Iteration:  3867charge 0 multiplicity 1
 C         1.653718         0.363752        -0.141318
 C         0.145227         0.200270        -0.156752
 C        -0.934791         0.657144        -0.873727
 C        -2.010340        -0.360467        -0.643961
 C        -2.002675        -0.469299         0.861871
 C        -0.596739        -0.991515         0.599245
 O         0.185694        -1.639800         1.524825
 C        -1.194435        -1.725514        -0.692099
 O        -1.937778        -2.891143        -0.342100
 H         2.285187        -0.447667         0.193956
 H         2.059278         0.592711        -1.110360
 H         1.949633         1.259831         0.504519
 H        -1.057574         1.510278        -1.570788
 H        -2.955340        -0.238139        -1.170228
 H        -2.190457         0.558704         1.365469
 H        -2.566819        -1.260849         1.243617
 H         1.201376        -1.547721         1.339813
 H        -0.535953        -1.863574        -1.585651
 H        -1.848758        -3.023877         0.571070
