19
Iteration:  3101
 C         1.456201         0.697382        -0.041136
 C         0.099876         0.196267         0.039319
 C        -1.034744         0.762714        -0.415285
 C        -2.120979        -0.258950        -0.321641
 C        -1.804846        -0.821924         1.206817
 C        -0.456152        -1.110677         0.473066
 O         0.502994        -2.161947         0.919185
 C        -1.313220        -1.379987        -0.786829
 O        -1.942823        -2.658024        -0.638180
 H         1.794946         1.013781        -1.052733
 H         1.704952         1.610709         0.473327
 H         2.230477        -0.032810         0.246336
 H        -1.069837         1.776142        -0.752439
 H        -3.140364         0.000729        -0.675300
 H        -1.806254        -0.064821         2.059187
 H        -2.321952        -1.752299         1.475306
 H        -0.125927        -2.897788         1.279311
 H        -0.850601        -1.358417        -1.700544
 H        -2.245095        -3.058677        -1.569549
