19
Iteration:  1671
 C         1.503948         0.652746        -0.010348
 C         0.081629         0.215980        -0.029233
 C        -0.988581         0.648435        -0.632638
 C        -2.101827        -0.237445        -0.214646
 C        -1.760418        -0.616731         1.233499
 C        -0.460599        -1.137171         0.542908
 O         0.407535        -2.090948         1.082899
 C        -1.336280        -1.490323        -0.697755
 O        -2.087475        -2.721292        -0.868226
 H         2.133475         0.463504         0.972456
 H         2.086345         0.123533        -0.723723
 H         1.565296         1.748949        -0.231476
 H        -1.074350         1.397751        -1.459608
 H        -3.116350        -0.098195        -0.630587
 H        -1.483771         0.087200         2.110698
 H        -2.397681        -1.461096         1.576685
 H         1.227844        -1.709915         1.543100
 H        -0.787482        -1.418269        -1.689463
 H        -1.503064        -3.431772        -1.078824
