19
Iteration:  4164charge 0 multiplicity 1
 C         1.559865         0.370763        -0.037342
 C         0.144014         0.025898        -0.319015
 C        -0.895692         0.554519        -1.107027
 C        -2.002800        -0.462222        -0.736958
 C        -1.923338        -0.183294         0.798774
 C        -0.554799        -0.930894         0.594214
 O         0.112403        -1.496931         1.660470
 C        -1.226623        -1.779528        -0.529751
 O        -1.891516        -2.904879        -0.176975
 H         2.329934         0.078162        -0.798059
 H         1.741651         1.469844        -0.032794
 H         2.025548         0.108258         0.937405
 H        -0.696388         1.018104        -2.050669
 H        -2.982964        -0.427123        -1.291455
 H        -1.809619         0.788659         1.159981
 H        -2.689310        -0.814076         1.412411
 H         0.638014        -2.261351         1.377088
 H        -0.497832        -1.951624        -1.305188
 H        -1.773941        -3.576022        -0.941523
