19
Iteration:   744charge 0 multiplicity 1
 C         1.615045         0.777791         0.045947
 C         0.116171         0.230051        -0.030402
 C        -1.100381         0.789822        -0.249328
 C        -2.117090        -0.294854        -0.080020
 C        -1.601290        -0.812160         1.280587
 C        -0.402437        -1.164102         0.365157
 O         0.563646        -2.120418         0.710463
 C        -1.457202        -1.480522        -0.838431
 O        -2.231287        -2.701136        -0.846737
 H         2.111668         0.113122         0.663501
 H         1.994705         0.788448        -1.030368
 H         1.568752         1.802371         0.376384
 H        -1.275396         1.775605        -0.681222
 H        -3.158014        -0.114812        -0.231440
 H        -1.536697        -0.001159         2.019629
 H        -2.185098        -1.719694         1.705329
 H         0.448184        -2.332194         1.639492
 H        -1.047065        -1.158929        -1.771790
 H        -1.835675        -3.428755        -0.324926
