19
Iteration:  2084
 C         1.619789         0.598508        -0.196893
 C         0.049702         0.214108         0.100447
 C        -1.070338         0.849142        -0.187575
 C        -2.136999        -0.217171        -0.149389
 C        -1.755779        -0.917096         1.228638
 C        -0.465912        -1.143486         0.455372
 O         0.539563        -1.983966         0.957588
 C        -1.406011        -1.396580        -0.841072
 O        -2.013368        -2.733765        -0.822930
 H         1.642942         1.717702        -0.401439
 H         2.180098         0.398228         0.709508
 H         2.025564        -0.009977        -1.001693
 H        -1.132021         1.833292        -0.805918
 H        -3.186660         0.064280        -0.177432
 H        -1.726406        -0.147899         1.961940
 H        -2.362653        -1.826819         1.304539
 H         0.134577        -2.897592         0.916892
 H        -0.859172        -1.211269        -1.810553
 H        -2.105707        -3.145649        -1.631114
