19
Iteration:  4770charge 0 multiplicity 1
 C         1.592150         0.556210        -0.145754
 C         0.279072        -0.058399        -0.385843
 C        -0.616923         0.096107        -1.320833
 C        -1.791081        -0.693941        -0.952506
 C        -2.002908        -0.275063         0.590946
 C        -0.563836        -0.880805         0.662591
 O        -0.090603        -1.146966         1.909156
 C        -1.108326        -1.932657        -0.420410
 O        -2.198001        -2.748171        -0.019410
 H         2.116726        -0.029591         0.662279
 H         2.156770         0.521285        -1.093857
 H         1.549945         1.602349         0.210525
 H        -0.506251         0.864103        -2.006365
 H        -2.620114        -0.638466        -1.654755
 H        -2.027701         0.708769         0.725679
 H        -2.757600        -0.966963         1.041503
 H         0.888695        -0.838109         1.901938
 H        -0.430472        -2.546921        -1.090994
 H        -2.190128        -2.946545         0.885841
