19
Iteration:  2630charge 0 multiplicity 1
 C         1.456841         0.609675         0.001149
 C         0.052283         0.299331         0.195701
 C        -1.140310         0.898740        -0.112376
 C        -2.159787        -0.219771        -0.033066
 C        -1.707908        -1.079567         1.154011
 C        -0.461069        -1.229390         0.351778
 O         0.596420        -2.217960         0.556283
 C        -1.319701        -1.232150        -0.850284
 O        -1.970963        -2.554698        -0.733800
 H         1.746454         1.706041        -0.237561
 H         1.987769         0.223504         0.903371
 H         1.798404         0.049979        -0.912787
 H        -1.398492         1.962030        -0.125125
 H        -3.167182        -0.074869        -0.418048
 H        -1.699811        -0.470758         2.086611
 H        -2.274334        -2.008949         1.251684
 H         0.427445        -2.536993         1.511869
 H        -0.912495        -1.064849        -1.908258
 H        -2.113137        -2.847331        -1.675412
