19
Iteration:   134charge 0 multiplicity 1
 C         1.552068         0.670901        -0.087053
 C         0.096296         0.218113         0.108432
 C        -1.097923         0.847579         0.003749
 C        -2.155885        -0.242543        -0.010370
 C        -1.763876        -1.155762         1.189087
 C        -0.391733        -1.212843         0.417430
 O         0.739803        -2.067499         0.700634
 C        -1.411532        -1.352794        -0.803716
 O        -2.180639        -2.491762        -0.899222
 H         1.780793         0.664808        -1.201442
 H         1.567357         1.633633         0.327695
 H         2.304120         0.123574         0.397853
 H        -1.338016         1.796329        -0.529142
 H        -3.242729        -0.055458        -0.131191
 H        -1.710086        -0.740177         2.184703
 H        -2.355081        -2.012433         1.132674
 H         0.303909        -2.872601         0.850071
 H        -0.933423        -1.073816        -1.716273
 H        -2.205736        -2.645779        -1.822593
