19
Iteration:  1147charge 0 multiplicity 1
 C         1.526205         0.544084        -0.246437
 C         0.127247         0.258263         0.060659
 C        -0.972253         0.845254        -0.376605
 C        -2.155418        -0.160306        -0.248991
 C        -1.824918        -0.788459         1.140492
 C        -0.459919        -1.080650         0.493957
 O         0.440923        -1.958348         1.112343
 C        -1.381258        -1.519636        -0.827753
 O        -1.947199        -2.817156        -0.666612
 H         1.961664         0.121348        -1.202215
 H         1.734721         1.600400        -0.316574
 H         2.325209         0.121222         0.451218
 H        -1.121734         1.793046        -0.925906
 H        -3.210250         0.003528        -0.531109
 H        -1.835567        -0.131023         2.041668
 H        -2.517012        -1.654974         1.252964
 H        -0.075657        -2.765195         1.481584
 H        -0.767732        -1.448581        -1.749825
 H        -1.668318        -3.272616        -1.439128
