19
Iteration:   126
 C         1.485909         0.640587        -0.033518
 C         0.077019         0.179003         0.058139
 C        -1.073720         0.828272        -0.035071
 C        -2.163422        -0.262432         0.042548
 C        -1.727605        -1.127411         1.224938
 C        -0.378901        -1.253485         0.404477
 O         0.765813        -2.019307         0.726927
 C        -1.420272        -1.341193        -0.887699
 O        -2.237458        -2.470119        -0.921719
 H         2.073989         0.730221        -1.011507
 H         1.530948         1.696983         0.261481
 H         2.255374         0.239161         0.607261
 H        -1.186196         1.847481        -0.445771
 H        -3.216127         0.067964        -0.066001
 H        -1.619129        -0.584226         2.156941
 H        -2.201473        -2.114006         1.330248
 H         0.493141        -2.919564         0.752690
 H        -0.977383        -1.090256        -1.874336
 H        -2.154489        -2.861667        -1.757636
