19
Iteration:  4479charge 0 multiplicity 1
 C         1.585670         0.671663        -0.099580
 C         0.227516         0.054759        -0.337877
 C        -0.705940         0.160006        -1.343046
 C        -1.940351        -0.425891        -0.858175
 C        -1.902947        -0.238315         0.720300
 C        -0.531085        -0.909782         0.655337
 O         0.006903        -1.392778         1.832377
 C        -1.212977        -1.830453        -0.468032
 O        -2.039959        -2.997452        -0.151892
 H         1.543255         1.693102         0.279820
 H         2.155329         0.181461         0.756511
 H         2.324462         0.514032        -0.954338
 H        -0.711898         1.021318        -2.055152
 H        -2.836878        -0.519077        -1.474227
 H        -1.975112         0.715027         1.151751
 H        -2.615929        -0.823132         1.399359
 H         0.566637        -2.077028         1.614304
 H        -0.552123        -2.297418        -1.295484
 H        -2.577654        -2.809715         0.612329
