19
Iteration:  3689
 C         1.553801         0.555809         0.011214
 C         0.122317         0.180316        -0.288525
 C        -0.980471         0.725162        -0.869393
 C        -2.031838        -0.270337        -0.552152
 C        -1.812650        -0.536629         1.008483
 C        -0.482480        -1.048852         0.505089
 O         0.300999        -1.842541         1.384765
 C        -1.243505        -1.655421        -0.698769
 O        -1.956071        -2.882120        -0.347153
 H         2.344262        -0.166677        -0.213787
 H         1.740471         1.492135        -0.593492
 H         1.722716         0.887452         1.074940
 H        -1.019504         1.348696        -1.795369
 H        -3.092321        -0.211840        -0.887554
 H        -1.857754         0.277163         1.660130
 H        -2.496412        -1.328863         1.456975
 H        -0.274041        -2.059405         2.222631
 H        -0.630330        -1.783457        -1.654713
 H        -2.413462        -3.125530        -1.123495
