19
Iteration:  2833
 C         1.441896         0.718217        -0.015368
 C         0.105281         0.130673         0.040283
 C        -1.016516         0.863794        -0.249453
 C        -2.190402        -0.129758         0.009125
 C        -1.751767        -0.902663         1.247430
 C        -0.400792        -1.202468         0.469477
 O         0.493751        -2.199048         0.872689
 C        -1.418183        -1.434278        -0.838385
 O        -1.959209        -2.671947        -1.091084
 H         1.912084         0.703302        -1.010555
 H         1.522683         1.810892         0.178981
 H         2.177615         0.206941         0.628442
 H        -1.257697         1.924849        -0.630948
 H        -3.248900         0.197814        -0.075566
 H        -1.590808        -0.422012         2.191485
 H        -2.354634        -1.895758         1.314519
 H         1.471893        -1.907281         0.994195
 H        -0.964577        -1.121201        -1.764365
 H        -2.415799        -2.958856        -0.179003
