19
Iteration:  2010charge 0 multiplicity 1
 C         1.534284         0.724044         0.130059
 C         0.196102         0.194983        -0.061726
 C        -1.008281         0.793862        -0.473311
 C        -2.167916        -0.237096        -0.121475
 C        -1.673414        -0.718708         1.324594
 C        -0.451671        -1.189358         0.443853
 O         0.594850        -2.092628         0.749207
 C        -1.527751        -1.505024        -0.828419
 O        -2.147919        -2.727716        -0.794863
 H         1.541464         1.192199         1.197522
 H         2.269653        -0.010547         0.076146
 H         1.711419         1.608667        -0.516915
 H        -1.415946         1.852796        -0.666341
 H        -3.191507         0.023080        -0.467703
 H        -1.467927         0.054461         2.015426
 H        -2.207805        -1.609659         1.587081
 H         0.468746        -2.865545         1.251029
 H        -1.111159        -1.309216        -1.822949
 H        -1.525359        -3.430166        -0.774572
