19
Iteration:   537charge 0 multiplicity 1
 C         1.474134         0.659238         0.223527
 C        -0.012336         0.253488        -0.016042
 C        -1.086568         0.879784        -0.361341
 C        -2.203798        -0.121410        -0.065499
 C        -1.542432        -0.679813         1.222263
 C        -0.431020        -1.140087         0.340281
 O         0.412049        -2.226415         0.614633
 C        -1.477022        -1.454740        -0.791738
 O        -1.781972        -2.840213        -0.689512
 H         1.960082         1.459492        -0.361160
 H         1.813608         0.979030         1.254888
 H         2.174840        -0.187909         0.046834
 H        -1.218037         1.922824        -0.728764
 H        -3.246692         0.220726        -0.089901
 H        -1.229154        -0.075717         2.098978
 H        -2.128322        -1.560425         1.689400
 H        -0.011801        -2.952678         0.029125
 H        -1.338045        -1.198730        -1.865194
 H        -2.462457        -3.168275        -1.374573
