19
Iteration:   280charge 0 multiplicity 1
 C         1.529037         0.806524         0.201225
 C         0.119103         0.254095         0.126565
 C        -1.069006         0.841660        -0.262582
 C        -2.072578        -0.279247        -0.021717
 C        -1.560111        -1.032836         1.225726
 C        -0.301289        -1.228914         0.310838
 O         0.704583        -2.110591         0.601227
 C        -1.550346        -1.399757        -0.921382
 O        -2.383527        -2.610686        -0.797844
 H         1.410772         1.815958         0.597901
 H         2.093407         0.073157         0.746388
 H         1.856918         0.939024        -0.843800
 H        -1.342785         1.838048        -0.687109
 H        -3.140324        -0.046071        -0.089876
 H        -1.359569        -0.611156         2.235540
 H        -2.117073        -1.995663         1.398291
 H         0.734555        -2.491748         1.567884
 H        -1.183433        -1.186230        -1.931031
 H        -2.188064        -3.196126        -1.639818
