19
Iteration:   467
 C         1.449017         0.654492        -0.052102
 C         0.147055         0.206098         0.142205
 C        -1.114348         0.842634        -0.155657
 C        -2.092640        -0.261817        -0.159561
 C        -1.593646        -1.026430         1.252171
 C        -0.411827        -1.235148         0.368280
 O         0.667592        -1.954499         0.916478
 C        -1.418112        -1.436555        -0.885552
 O        -2.237122        -2.598634        -0.891896
 H         1.908657         0.251651        -0.966534
 H         1.572596         1.739782        -0.252416
 H         2.247075         0.488836         0.713364
 H        -1.153049         1.848944        -0.561111
 H        -3.179267        -0.105971        -0.226887
 H        -1.412345        -0.350729         2.157642
 H        -2.286972        -1.776225         1.641125
 H         0.486025        -2.937415         0.742149
 H        -0.907522        -1.392022        -1.835227
 H        -2.706683        -2.695991        -1.794750
