19
Iteration:  4221charge 0 multiplicity 1
 C         1.554739         0.640447        -0.083534
 C         0.160023         0.080556        -0.286032
 C        -0.840488         0.517422        -1.083441
 C        -1.915292        -0.515394        -0.815052
 C        -1.943104        -0.258495         0.711599
 C        -0.441092        -0.992687         0.617831
 O         0.187919        -1.696334         1.670471
 C        -1.123487        -1.877045        -0.605338
 O        -2.134053        -2.814258        -0.089454
 H         1.885808         1.477894        -0.821383
 H         1.576570         1.214607         0.880219
 H         2.307051        -0.152618        -0.068741
 H        -0.837600         1.176639        -1.975029
 H        -2.813946        -0.414170        -1.442820
 H        -1.898194         0.832254         1.019039
 H        -2.728380        -0.774005         1.282673
 H        -0.136583        -1.297847         2.471310
 H        -0.407328        -2.299308        -1.383208
 H        -2.189770        -3.598686        -0.577880
