19
Iteration:  3079
 C         1.562750         0.687935         0.004084
 C         0.093338         0.292175         0.016454
 C        -1.078023         0.886933        -0.343414
 C        -2.074003        -0.264703        -0.214050
 C        -1.774607        -0.816233         1.164743
 C        -0.450081        -1.190429         0.405964
 O         0.544716        -2.031822         0.974831
 C        -1.263027        -1.564496        -0.805895
 O        -2.161393        -2.736386        -0.748919
 H         2.094336         0.659306        -0.975418
 H         1.618057         1.763016         0.174792
 H         2.260709         0.212011         0.695724
 H        -1.210119         1.877555        -0.837608
 H        -3.160181        -0.107388        -0.460873
 H        -1.622956        -0.053726         2.002417
 H        -2.525396        -1.561622         1.399881
 H         0.233308        -2.930107         1.009759
 H        -0.891030        -1.488461        -1.776272
 H        -2.085756        -3.316498        -1.451704
