19
Iteration:  4037
 C         1.563724         0.589591        -0.017447
 C         0.256111        -0.006270        -0.304355
 C        -0.766060         0.420219        -1.154779
 C        -2.035828        -0.328016        -0.721921
 C        -1.955598        -0.329010         0.826097
 C        -0.505229        -1.005278         0.547848
 O         0.207195        -1.600212         1.688380
 C        -1.361393        -1.735817        -0.571284
 O        -2.019387        -2.868078        -0.193510
 H         1.512013         0.994232         1.013274
 H         2.467774        -0.044958        -0.135795
 H         1.674812         1.420404        -0.655140
 H        -0.728165         1.163966        -1.917526
 H        -3.051203        -0.064347        -1.150150
 H        -2.043899         0.692717         1.305459
 H        -2.798809        -0.997537         1.215795
 H         0.878222        -2.318536         1.316011
 H        -0.820100        -1.988028        -1.474029
 H        -1.413700        -3.491105        -0.531345
