19
Iteration:  4258
 C         1.556465         0.662172         0.029365
 C         0.234026         0.079572        -0.277091
 C        -0.713849         0.360862        -1.179971
 C        -1.960276        -0.428133        -0.778401
 C        -1.960072        -0.286379         0.810505
 C        -0.534096        -0.887627         0.557956
 O         0.106633        -1.628011         1.542420
 C        -1.254518        -1.870261        -0.573321
 O        -2.082974        -2.856234        -0.094378
 H         1.378519         1.718198        -0.023806
 H         1.935434         0.298969         1.009492
 H         2.438043         0.434239        -0.623692
 H        -0.567170         0.638411        -2.234260
 H        -2.859955        -0.289425        -1.367707
 H        -1.985384         0.714806         1.283665
 H        -2.584406        -1.062896         1.258304
 H         0.786243        -1.142670         2.116341
 H        -0.603065        -2.215022        -1.461777
 H        -1.704715        -3.769901        -0.046572
