19
Iteration:  3537
 C         1.578035         0.698888         0.047588
 C         0.073181         0.215167        -0.057855
 C        -0.993248         0.701036        -0.753670
 C        -2.016286        -0.381875        -0.499166
 C        -1.847837        -0.554097         1.049820
 C        -0.450948        -1.098091         0.528529
 O         0.308123        -2.027066         1.185948
 C        -1.211265        -1.607046        -0.800203
 O        -1.989609        -2.786317        -0.424948
 H         1.811447         1.002318        -0.972818
 H         1.510006         1.547105         0.674135
 H         2.140263        -0.131315         0.461718
 H        -1.046378         1.323074        -1.621423
 H        -3.006833        -0.092745        -0.806475
 H        -1.775625         0.328546         1.630523
 H        -2.722248        -1.279070         1.316363
 H         0.779021        -1.453659         1.954020
 H        -0.678660        -1.803902        -1.661378
 H        -2.645043        -2.987567        -1.193299
