19
Iteration:  4594
 C         1.694406         0.480819        -0.117658
 C         0.219154         0.045050        -0.306176
 C        -0.721701         0.320324        -1.263841
 C        -1.937951        -0.559975        -0.903526
 C        -1.923693        -0.158017         0.607577
 C        -0.589728        -0.825050         0.638284
 O        -0.037980        -1.275723         1.880776
 C        -1.190973        -1.937269        -0.432786
 O        -2.077358        -3.021809        -0.124759
 H         2.412112        -0.294621        -0.487041
 H         1.877171         1.414907        -0.619407
 H         1.825171         0.619667         0.937931
 H        -0.627684         0.682841        -2.331632
 H        -2.946675        -0.416697        -1.416679
 H        -2.086984         0.912594         0.804307
 H        -2.673066        -0.661070         1.272576
 H         0.751054        -0.827613         1.989258
 H        -0.531707        -2.278777        -1.199457
 H        -1.726277        -3.640565         0.446725
