19
Iteration:  1374
 C         1.463022         0.511868        -0.131966
 C         0.093665         0.224965         0.066252
 C        -0.951918         0.824196        -0.556516
 C        -2.118291        -0.225755        -0.359672
 C        -1.944643        -0.642645         1.110592
 C        -0.441873        -1.071974         0.555321
 O         0.501124        -1.934096         1.208260
 C        -1.270883        -1.533894        -0.723635
 O        -1.974361        -2.844918        -0.757360
 H         1.699841         1.652291        -0.070619
 H         2.185186        -0.085051         0.403605
 H         1.669643         0.215612        -1.217048
 H        -0.982219         1.599799        -1.248295
 H        -3.061715        -0.255407        -0.874522
 H        -2.147839         0.221736         1.741891
 H        -2.552129        -1.604772         1.211674
 H         0.543183        -2.770795         0.783703
 H        -0.651795        -1.394618        -1.610704
 H        -2.036571        -3.015434         0.277367
