19
Iteration:  2830charge 0 multiplicity 1
 C         1.451611         0.710518        -0.011910
 C         0.092518         0.140234         0.045696
 C        -1.000843         0.847617        -0.279155
 C        -2.191597        -0.133671         0.020506
 C        -1.735015        -0.917133         1.258819
 C        -0.397845        -1.190504         0.452991
 O         0.467947        -2.196033         0.864083
 C        -1.453968        -1.415752        -0.827669
 O        -1.931848        -2.680580        -1.085113
 H         1.913157         0.634539        -1.022799
 H         1.445165         1.866119         0.138882
 H         2.247904         0.282953         0.748081
 H        -1.146889         1.842868        -0.499088
 H        -3.252839         0.206486        -0.053511
 H        -1.612668        -0.386353         2.238780
 H        -2.361332        -1.827709         1.373211
 H         1.349393        -1.884577         0.946752
 H        -0.986559        -1.117331        -1.842997
 H        -2.312707        -2.962816        -0.292641
