19
Iteration:  1706
 C         1.541542         0.757708         0.104512
 C         0.168434         0.221161        -0.107325
 C        -1.004784         0.838102        -0.454682
 C        -2.081997        -0.191583        -0.339565
 C        -1.796956        -0.656291         1.087670
 C        -0.442367        -1.165578         0.354374
 O         0.372489        -2.204989         0.945374
 C        -1.345629        -1.575544        -0.763850
 O        -2.099404        -2.778241        -0.565017
 H         1.592051         1.359023         1.068889
 H         2.212330        -0.117536         0.098937
 H         1.838751         1.371414        -0.781186
 H        -1.234051         1.895195        -0.753970
 H        -3.086225        -0.014355        -0.702712
 H        -1.465074        -0.034288         1.931604
 H        -2.428465        -1.563659         1.381482
 H         1.019545        -1.816874         1.646759
 H        -0.836870        -1.483338        -1.774403
 H        -1.412090        -3.473372        -0.654327
