19
Iteration:  3947charge 0 multiplicity 1
 C         1.593667         0.676107        -0.032534
 C         0.223142         0.146677        -0.244160
 C        -0.812237         0.466637        -1.081176
 C        -2.021706        -0.341606        -0.681674
 C        -1.850587        -0.289471         0.883240
 C        -0.509004        -0.970395         0.587571
 O         0.084275        -1.759689         1.590690
 C        -1.315239        -1.795804        -0.695182
 O        -2.027048        -2.967914        -0.267939
 H         1.842044         1.230728        -0.962819
 H         1.800870         1.358116         0.804260
 H         2.336614        -0.059436         0.109416
 H        -0.850543         1.372910        -1.782761
 H        -3.020190        -0.101921        -1.058362
 H        -1.782515         0.601815         1.496989
 H        -2.671072        -0.946667         1.410514
 H         1.070843        -2.005371         1.270023
 H        -0.781256        -2.040348        -1.577479
 H        -1.533399        -3.343481         0.436834
