19
Iteration:  4043charge 0 multiplicity 1
 C         1.568704         0.587675        -0.032972
 C         0.220905         0.023018        -0.318531
 C        -0.734512         0.376162        -1.163945
 C        -1.998251        -0.391249        -0.697868
 C        -1.920858        -0.321630         0.849119
 C        -0.560346        -0.985280         0.549435
 O         0.181065        -1.592814         1.717906
 C        -1.364588        -1.704104        -0.557786
 O        -2.023676        -2.875004        -0.212863
 H         1.736408         0.838749         1.042477
 H         2.465313         0.031733        -0.353746
 H         1.648907         1.532811        -0.676567
 H        -0.804243         1.301735        -1.780893
 H        -2.895877        -0.173997        -1.251445
 H        -1.969502         0.604157         1.364141
 H        -2.737974        -0.979938         1.208243
 H         0.835692        -2.246897         1.334393
 H        -0.868638        -1.828558        -1.605223
 H        -1.432913        -3.472271        -0.733879
