19
Iteration:  4778charge 0 multiplicity 1
 C         1.644459         0.548270        -0.191994
 C         0.263303        -0.093388        -0.301512
 C        -0.621362         0.117650        -1.342457
 C        -1.818700        -0.665722        -0.953876
 C        -1.978974        -0.276162         0.590504
 C        -0.623745        -0.853302         0.641674
 O        -0.100999        -1.149858         1.889866
 C        -1.129421        -1.943424        -0.419772
 O        -2.181930        -2.764697        -0.002690
 H         2.296677        -0.125238         0.482086
 H         2.365391         0.883274        -0.962641
 H         1.400838         1.495005         0.394777
 H        -0.418090         0.728063        -2.195191
 H        -2.591712        -0.770649        -1.788459
 H        -2.130879         0.807448         0.930785
 H        -2.777975        -0.908459         1.004473
 H         0.897305        -0.840465         1.970432
 H        -0.331377        -2.471738        -1.062926
 H        -1.993740        -3.026824         0.916264
