19
Iteration:  2382charge 0 multiplicity 1
 C         1.430928         0.726103        -0.034603
 C         0.078624         0.249650         0.088924
 C        -1.079902         0.910983        -0.253098
 C        -2.095053        -0.179299        -0.000080
 C        -1.691875        -0.922949         1.283575
 C        -0.436821        -1.236549         0.452332
 O         0.583542        -2.288885         0.726814
 C        -1.416453        -1.348845        -0.778418
 O        -2.028648        -2.611156        -0.851544
 H         1.453151         1.730166         0.477332
 H         2.103582        -0.011908         0.378656
 H         1.601329         0.803112        -1.144443
 H        -1.274927         1.914762        -0.653970
 H        -3.161745         0.103777        -0.142289
 H        -1.627681        -0.340812         2.205191
 H        -2.300883        -1.808256         1.408679
 H         0.508490        -2.863337        -0.033692
 H        -0.807360        -1.324082        -1.696380
 H        -1.802641        -3.057553        -1.776923
