19
Iteration:  4304
 C         1.468122         0.486121        -0.047025
 C         0.088080         0.088911        -0.273748
 C        -0.788052         0.538086        -1.162670
 C        -1.856808        -0.453024        -0.817920
 C        -1.890017        -0.237443         0.709649
 C        -0.541545        -0.991010         0.607318
 O         0.073164        -1.587873         1.667122
 C        -1.110482        -1.816148        -0.535452
 O        -2.055132        -2.921361        -0.133135
 H         1.468772         0.988143         0.884379
 H         2.186104        -0.359913        -0.140971
 H         1.849883         1.209943        -0.795260
 H        -0.709668         1.101107        -2.057216
 H        -2.805696        -0.444845        -1.407740
 H        -1.868862         0.774293         0.938259
 H        -2.717968        -0.848913         1.221297
 H         1.062449        -1.241675         1.594293
 H        -0.349017        -2.214658        -1.246303
 H        -1.812431        -3.066796         0.852549
