19
Iteration:  1834
 C         1.556123         0.635989        -0.207849
 C         0.084666         0.231726         0.095856
 C        -0.996370         0.815678        -0.379842
 C        -2.067309        -0.264111        -0.301324
 C        -1.953377        -0.789625         1.190934
 C        -0.459537        -1.136986         0.551635
 O         0.568146        -1.993318         1.030351
 C        -1.222005        -1.537870        -0.757993
 O        -2.081190        -2.723630        -0.720387
 H         1.499730         0.881819        -1.347321
 H         1.820058         1.487837         0.385740
 H         2.223319        -0.218217        -0.071744
 H        -1.120682         1.853545        -0.683138
 H        -3.101937        -0.179364        -0.611010
 H        -1.930671        -0.019691         1.972361
 H        -2.832747        -1.431117         1.387853
 H         0.226190        -2.851776         0.950284
 H        -0.490217        -1.434415        -1.553315
 H        -2.343413        -2.938021        -1.548620
