19
Iteration:   423charge 0 multiplicity 1
 C         1.496210         0.634063        -0.128917
 C         0.084471         0.213049         0.073139
 C        -1.143219         0.844160        -0.289152
 C        -2.142075        -0.264576         0.077916
 C        -1.583391        -0.972423         1.370759
 C        -0.399451        -1.179652         0.520717
 O         0.595605        -2.090490         0.806747
 C        -1.451440        -1.366678        -0.796319
 O        -2.150636        -2.553084        -1.103049
 H         2.181028        -0.259972        -0.119174
 H         1.617686         1.224113        -1.042038
 H         1.887744         1.298216         0.693159
 H        -1.327263         1.699367        -0.881928
 H        -3.177522         0.030040        -0.108547
 H        -1.497363        -0.503793         2.399051
 H        -1.961508        -1.961677         1.643705
 H         0.274734        -2.794200         1.469579
 H        -1.004958        -0.981721        -1.704851
 H        -1.410262        -3.206130        -1.431680
