19
Iteration:  4322charge 0 multiplicity 1
 C         1.667155         0.503313        -0.086466
 C         0.181083         0.134058        -0.282962
 C        -0.818130         0.454323        -1.135530
 C        -1.994714        -0.507310        -0.838245
 C        -1.977313        -0.337471         0.737619
 C        -0.516651        -0.939240         0.552929
 O        -0.013667        -1.506712         1.762010
 C        -1.170377        -1.849149        -0.583289
 O        -1.971849        -2.853407        -0.152980
 H         2.016862         0.349652         0.996580
 H         2.297390        -0.207209        -0.686920
 H         1.810533         1.567731        -0.409421
 H        -0.782263         1.153930        -1.955142
 H        -2.922156        -0.517357        -1.407060
 H        -1.996410         0.713570         1.176645
 H        -2.685420        -0.968740         1.294867
 H         1.027241        -1.620663         1.643760
 H        -0.560582        -2.193131        -1.487367
 H        -1.866224        -2.877594         0.869575
