19
Iteration:  3991charge 0 multiplicity 1
 C         1.593994         0.619046         0.083369
 C         0.144971         0.186370        -0.232571
 C        -0.884781         0.466146        -1.144659
 C        -2.050888        -0.472608        -0.772646
 C        -1.913916        -0.342127         0.773462
 C        -0.488316        -0.967668         0.504374
 O         0.259233        -1.774078         1.562857
 C        -1.175671        -1.794605        -0.622942
 O        -2.141367        -2.754526        -0.146402
 H         1.779804         1.677950         0.380535
 H         1.941590        -0.002441         0.923077
 H         2.286102         0.374222        -0.675337
 H        -1.004477         1.380193        -1.716114
 H        -2.908106        -0.489469        -1.477481
 H        -1.991244         0.653001         1.139091
 H        -2.525498        -1.055576         1.471246
 H         1.233970        -2.022467         1.242741
 H        -0.587186        -2.061547        -1.499321
 H        -1.791312        -3.191814         0.630748
