19
Iteration:   232
 C         1.475254         0.606411        -0.017980
 C        -0.034397         0.253874         0.125045
 C        -1.122546         0.894069        -0.079941
 C        -2.143262        -0.230882        -0.002893
 C        -1.631856        -0.948500         1.289457
 C        -0.371345        -1.199790         0.397000
 O         0.577712        -2.162724         0.626737
 C        -1.433367        -1.348659        -0.854098
 O        -1.990760        -2.625565        -0.849250
 H         1.485485         1.669839        -0.419439
 H         1.965456         0.453069         0.981664
 H         2.009768        -0.070336        -0.684447
 H        -1.176877         1.979130        -0.448357
 H        -3.216294         0.045062        -0.092148
 H        -1.462366        -0.236107         2.090587
 H        -2.205977        -1.784294         1.622065
 H         0.676014        -2.699355        -0.125104
 H        -1.088348        -0.992595        -1.823507
 H        -2.197112        -2.936057        -1.694299
