19
Iteration:  2152
 C         1.539214         0.661617         0.015977
 C         0.102991         0.265020         0.056536
 C        -1.063360         0.870444        -0.314357
 C        -2.137539        -0.133869        -0.071249
 C        -1.648159        -0.865621         1.168601
 C        -0.408943        -1.188380         0.397437
 O         0.501380        -2.059553         0.833500
 C        -1.440548        -1.522113        -0.819467
 O        -1.974363        -2.783474        -0.812605
 H         1.818714         0.800591        -1.060176
 H         1.655407         1.584720         0.516409
 H         2.148800        -0.118141         0.488113
 H        -1.309573         1.863694        -0.403127
 H        -3.211127         0.133511        -0.205303
 H        -1.532581        -0.230455         2.008071
 H        -2.354684        -1.630721         1.321176
 H         0.019914        -2.797727         1.119783
 H        -1.103598        -1.284481        -1.860310
 H        -2.835005        -2.745578        -1.339471
