19
Iteration:  2442charge 0 multiplicity 1
 C         1.393409         0.642618         0.194476
 C         0.062517         0.194971         0.012006
 C        -1.049682         0.903490        -0.223191
 C        -2.119064        -0.186194        -0.038790
 C        -1.567308        -0.910802         1.274276
 C        -0.420844        -1.153063         0.295960
 O         0.663949        -2.179369         0.588269
 C        -1.498029        -1.421145        -0.788796
 O        -2.126082        -2.679996        -0.852997
 H         1.548128         1.631815        -0.276579
 H         1.786620         0.687298         1.240435
 H         2.101166         0.067578        -0.378999
 H        -1.223352         2.027392        -0.363239
 H        -3.183887        -0.052201        -0.305694
 H        -1.328779        -0.493795         2.261000
 H        -2.219526        -1.828106         1.420778
 H         0.889521        -2.170593         1.618870
 H        -0.986764        -1.147107        -1.762603
 H        -2.559174        -2.682288        -1.820056
