19
Iteration:  3478charge 0 multiplicity 1
 C         1.490604         0.670221         0.078355
 C         0.089865         0.240289        -0.087609
 C        -0.982942         0.652056        -0.738648
 C        -2.105251        -0.303700        -0.497135
 C        -1.817801        -0.559723         1.126074
 C        -0.452931        -1.125124         0.447932
 O         0.356331        -2.044008         1.178365
 C        -1.332605        -1.583531        -0.741770
 O        -1.926585        -2.791104        -0.490020
 H         2.140433        -0.159749         0.430609
 H         1.923302         1.025485        -0.927937
 H         1.791772         1.495484         0.740269
 H        -0.910582         1.566841        -1.435846
 H        -3.084550         0.002152        -0.927693
 H        -1.790612         0.323043         1.862644
 H        -2.491063        -1.283874         1.503410
 H         0.914178        -1.697018         1.807453
 H        -0.745613        -1.613075        -1.668884
 H        -2.254996        -3.058266        -1.309248
