19
Iteration:  4062charge 0 multiplicity 1
 C         1.578557         0.575857        -0.133585
 C         0.176288         0.116464        -0.215931
 C        -0.795028         0.456747        -1.105173
 C        -1.990972        -0.377174        -0.719115
 C        -1.861726        -0.304457         0.917481
 C        -0.498885        -0.950437         0.598933
 O         0.042930        -1.561081         1.714479
 C        -1.169653        -1.879738        -0.622755
 O        -2.070668        -2.912049        -0.271034
 H         1.970239         0.398129         0.845390
 H         2.237605         0.086560        -0.869969
 H         1.705568         1.684889        -0.352430
 H        -0.690047         1.095133        -2.080791
 H        -2.998049        -0.244739        -1.074770
 H        -1.855396         0.797802         1.275241
 H        -2.555049        -0.848120         1.488608
 H         0.883499        -2.127468         1.439774
 H        -0.474387        -2.163635        -1.351278
 H        -2.019471        -3.614367        -0.895592
