19
Iteration:  1285charge 0 multiplicity 1
 C         1.523070         0.732315         0.072258
 C         0.169596         0.229500        -0.037313
 C        -0.968772         0.697357        -0.590290
 C        -2.063993        -0.272745        -0.381040
 C        -1.847242        -0.683679         1.096994
 C        -0.430684        -1.157925         0.549276
 O         0.581384        -1.986096         0.936014
 C        -1.349912        -1.541893        -0.746696
 O        -2.193260        -2.728725        -0.535756
 H         1.767644         1.423051        -0.762428
 H         1.557564         1.283164         1.093517
 H         2.259172        -0.105352         0.055089
 H        -1.160478         1.647506        -1.186040
 H        -3.022752         0.032972        -0.820676
 H        -2.117872         0.132045         1.743848
 H        -2.439987        -1.652157         1.330944
 H         0.166072        -2.825680         0.944387
 H        -0.841447        -1.750861        -1.688165
 H        -1.720458        -3.641385        -0.543102
