19
Iteration:  3171
 C         1.459060         0.527752         0.003826
 C         0.004915         0.200367         0.021863
 C        -1.125101         0.806104        -0.500976
 C        -2.154046        -0.173993        -0.219700
 C        -1.747802        -0.717040         1.182949
 C        -0.420974        -1.113358         0.443216
 O         0.523549        -2.004480         0.993351
 C        -1.258264        -1.451621        -0.823193
 O        -1.903330        -2.762067        -0.655320
 H         1.690603         1.437735         0.484058
 H         1.868721        -0.182085         0.731931
 H         1.968043         0.370297        -0.939506
 H        -1.258970         1.717735        -1.222293
 H        -3.172690         0.116874        -0.482411
 H        -1.579560        -0.043170         2.015278
 H        -2.468116        -1.542376         1.517464
 H         0.187367        -2.958978         0.703868
 H        -0.856120        -1.533737        -1.830820
 H        -2.347658        -2.914971        -1.547808
