19
Iteration:    32
 C         1.498784         0.780413         0.223359
 C         0.116245         0.341292         0.187711
 C        -1.090049         0.945623         0.080701
 C        -2.057653        -0.232386        -0.074333
 C        -1.716619        -1.042093         1.152491
 C        -0.357797        -1.232649         0.208270
 O         0.498495        -2.295112         0.265718
 C        -1.474212        -1.377037        -0.886391
 O        -2.069076        -2.611304        -0.648306
 H         2.169359         0.149965         0.658079
 H         1.987640         0.819107        -0.765974
 H         1.763096         1.764560         0.717146
 H        -1.383546         1.946391        -0.263188
 H        -3.067721         0.128377        -0.254572
 H        -1.658599        -0.345511         2.013118
 H        -2.265452        -1.980171         1.459474
 H         0.478601        -2.646451         1.207070
 H        -1.211974        -1.149729        -1.930247
 H        -1.668557        -3.249623        -1.312616
