19
Iteration:  4340charge 0 multiplicity 1
 C         1.674316         0.516895        -0.174960
 C         0.224608         0.146716        -0.249066
 C        -0.683011         0.361701        -1.214635
 C        -1.938886        -0.396576        -0.799106
 C        -2.036980        -0.376516         0.820701
 C        -0.640082        -0.877483         0.634839
 O        -0.033338        -1.433569         1.762743
 C        -1.251529        -1.760362        -0.645028
 O        -1.922932        -2.994156        -0.140439
 H         2.219379        -0.084680         0.538603
 H         2.214783         0.195100        -1.046107
 H         1.790227         1.556983        -0.001220
 H        -0.665644         1.147128        -2.041201
 H        -2.818175        -0.282878        -1.444714
 H        -2.259246         0.577847         1.380342
 H        -2.660187        -1.146689         1.211234
 H         0.703727        -2.170619         1.634753
 H        -0.553517        -2.001837        -1.374582
 H        -1.827107        -3.174163         0.864171
