19
Iteration:  4183
 C         1.606119         0.526596        -0.079136
 C         0.186416         0.129509        -0.269214
 C        -0.750344         0.348955        -1.241237
 C        -1.992368        -0.287680        -0.733573
 C        -2.016233        -0.345450         0.835598
 C        -0.563445        -0.930836         0.625724
 O         0.224106        -1.511738         1.718760
 C        -1.259012        -1.755719        -0.644483
 O        -1.998025        -2.936845        -0.119624
 H         2.148026         0.370240        -0.967986
 H         1.636049         1.570142         0.260517
 H         2.032983        -0.121621         0.732884
 H        -0.599587         1.093814        -2.058334
 H        -2.933635        -0.103645        -1.252147
 H        -2.247670         0.570346         1.398775
 H        -2.752552        -1.142295         1.158629
 H         0.082570        -2.424957         1.628440
 H        -0.640880        -2.044547        -1.466340
 H        -1.839466        -3.666250        -0.786445
