19
Iteration:  3608
 C         1.574904         0.484455        -0.048515
 C         0.101664         0.189161        -0.122927
 C        -0.987101         0.656337        -0.810548
 C        -2.046331        -0.335713        -0.489115
 C        -1.788641        -0.521553         1.065273
 C        -0.509225        -1.039245         0.537859
 O         0.326366        -1.763961         1.374830
 C        -1.302666        -1.633949        -0.744251
 O        -1.978168        -2.778935        -0.528077
 H         1.647791         1.205796         0.767311
 H         2.197760        -0.449887         0.128104
 H         1.730390         0.972385        -1.003967
 H        -1.088569         1.587569        -1.275611
 H        -3.064068        -0.290850        -0.850946
 H        -1.784504         0.414597         1.694025
 H        -2.320848        -1.335763         1.468307
 H        -0.120622        -2.679964         1.564690
 H        -0.829125        -1.630633        -1.803408
 H        -1.412574        -3.554789        -0.751816
