19
Iteration:  3578
 C         1.566916         0.543385         0.034976
 C         0.118100         0.221462        -0.176193
 C        -0.962149         0.736032        -0.785183
 C        -2.031463        -0.210231        -0.477809
 C        -1.914830        -0.537857         1.020382
 C        -0.479823        -1.066341         0.534713
 O         0.461904        -1.842959         1.299095
 C        -1.356238        -1.718497        -0.728225
 O        -2.017984        -2.890925        -0.493933
 H         1.752886         1.643003         0.086404
 H         1.981074         0.112342         0.991503
 H         2.137599         0.242867        -0.843428
 H        -1.114565         1.588492        -1.365538
 H        -3.000920        -0.061597        -0.875671
 H        -2.026034         0.250100         1.753383
 H        -2.518211        -1.444008         1.240080
 H         0.215358        -1.903047         2.216825
 H        -0.897053        -1.659897        -1.749550
 H        -1.877396        -3.505557        -1.272833
