19
Iteration:  1830charge 0 multiplicity 1
 C         1.557533         0.640570        -0.206321
 C         0.107700         0.241416         0.085811
 C        -1.041825         0.823803        -0.439485
 C        -2.060425        -0.274271        -0.263148
 C        -1.918619        -0.805218         1.156935
 C        -0.463735        -1.148401         0.595434
 O         0.570852        -1.992297         1.030613
 C        -1.209625        -1.498466        -0.744436
 O        -2.116583        -2.712155        -0.710568
 H         1.561751         0.877592        -1.212673
 H         1.831261         1.437284         0.595969
 H         2.215783        -0.209914        -0.050806
 H        -1.247193         1.841409        -0.783096
 H        -3.103218        -0.140229        -0.650312
 H        -1.820434        -0.045535         1.947166
 H        -2.642996        -1.592358         1.268602
 H         0.160603        -2.926935         0.965976
 H        -0.481075        -1.545986        -1.587630
 H        -2.349345        -3.036601        -1.693183
