19
Iteration:    34charge 0 multiplicity 1
 C         1.480500         0.789541         0.229943
 C         0.131238         0.317470         0.195568
 C        -1.102012         0.959342         0.063928
 C        -2.060841        -0.224464        -0.064937
 C        -1.715309        -1.034979         1.161311
 C        -0.354938        -1.233334         0.199819
 O         0.510469        -2.302256         0.267275
 C        -1.477246        -1.366246        -0.900964
 O        -2.068477        -2.613780        -0.640953
 H         2.123162         0.052029         0.676672
 H         1.928740         0.893659        -0.764108
 H         1.697978         1.696549         0.720674
 H        -1.304230         1.913799        -0.336779
 H        -3.063483         0.147079        -0.234406
 H        -1.571887        -0.406217         2.042474
 H        -2.271895        -1.914621         1.406017
 H         0.487489        -2.662937         1.218228
 H        -1.211892        -1.156387        -1.921479
 H        -1.664482        -3.261324        -1.335354
