19
Iteration:  1186charge 0 multiplicity 1
 C         1.543089         0.619555        -0.130101
 C         0.065954         0.234125         0.048195
 C        -1.047118         0.799909        -0.574976
 C        -2.119717        -0.288384        -0.303373
 C        -1.829648        -0.653287         1.182000
 C        -0.442146        -1.157649         0.460999
 O         0.370438        -2.110749         1.081957
 C        -1.285674        -1.456638        -0.745632
 O        -1.865589        -2.739459        -0.592029
 H         1.698770         0.512279        -1.203826
 H         1.678190         1.668300         0.271348
 H         2.131812        -0.099760         0.426511
 H        -1.184963         1.762016        -0.990475
 H        -3.152014        -0.032233        -0.525230
 H        -1.610051         0.188162         1.811708
 H        -2.243745        -1.598476         1.623715
 H         0.561952        -2.715712         0.364392
 H        -0.721394        -1.391765        -1.701177
 H        -2.808393        -2.728918        -1.022208
