19
Iteration:  1753charge 0 multiplicity 1
 C         1.511481         0.680463         0.222763
 C         0.042300         0.268976        -0.054522
 C        -1.013999         0.775919        -0.602055
 C        -2.074491        -0.211973        -0.308810
 C        -1.733637        -0.606680         1.209844
 C        -0.459745        -1.167019         0.444657
 O         0.549737        -2.127286         0.757556
 C        -1.347994        -1.550663        -0.773688
 O        -2.126871        -2.774167        -0.612552
 H         1.500814         1.702089         0.452547
 H         1.924501        -0.025187         1.075438
 H         2.164124         0.506100        -0.644770
 H        -1.134455         1.719802        -1.112284
 H        -3.140539         0.006331        -0.519471
 H        -1.708841         0.343566         1.730877
 H        -2.386343        -1.381711         1.580229
 H         0.544160        -2.587519         1.581992
 H        -0.927187        -1.575008        -1.806018
 H        -1.651515        -3.420162        -0.204710
