19
Iteration:  2799
 C         1.511778         0.659929         0.045150
 C         0.068909         0.283349         0.027461
 C        -1.155385         0.888120        -0.163779
 C        -2.215101        -0.207942         0.001526
 C        -1.631877        -0.830556         1.281576
 C        -0.381569        -1.139822         0.396537
 O         0.324726        -2.305721         0.759473
 C        -1.371822        -1.401120        -0.860550
 O        -1.874203        -2.679082        -1.021628
 H         2.051511        -0.220859        -0.262271
 H         1.657671         1.578178        -0.576828
 H         1.782688         0.994695         1.078586
 H        -1.238496         1.797002        -0.741110
 H        -3.303786         0.034190        -0.105277
 H        -1.460896        -0.104251         2.080654
 H        -2.258666        -1.618543         1.829848
 H         1.211927        -2.318888         0.243185
 H        -0.896337        -1.092199        -1.822341
 H        -1.620421        -3.187905        -0.154925
