19
Iteration:  3221
 C         1.511232         0.712044        -0.005043
 C         0.111757         0.192391        -0.038884
 C        -1.000200         0.847354        -0.377804
 C        -2.155138        -0.285731        -0.339335
 C        -1.762252        -0.739665         1.127871
 C        -0.398647        -1.171458         0.429941
 O         0.581941        -2.019001         1.049943
 C        -1.372322        -1.543679        -0.822404
 O        -2.131188        -2.745304        -0.664313
 H         1.764624         0.827617         1.092765
 H         2.277973         0.039809        -0.455935
 H         1.498583         1.706681        -0.547263
 H        -1.107335         1.773956        -0.901133
 H        -3.116043         0.065241        -0.675853
 H        -1.711120         0.078896         1.840408
 H        -2.400665        -1.571941         1.481864
 H         0.259723        -2.743612         1.516722
 H        -0.961116        -1.512043        -1.871549
 H        -1.887879        -3.435041        -1.213319
