19
Iteration:  1404
 C         1.531379         0.548447        -0.154601
 C         0.088176         0.243449         0.018993
 C        -0.980697         0.785083        -0.537250
 C        -2.073469        -0.334684        -0.389557
 C        -1.907845        -0.676556         1.089374
 C        -0.470290        -1.096176         0.531541
 O         0.408737        -1.944783         1.250686
 C        -1.195467        -1.546088        -0.754013
 O        -2.061248        -2.713036        -0.668413
 H         1.696712         1.621469        -0.049240
 H         2.233514         0.005989         0.543767
 H         1.784914         0.407403        -1.175377
 H        -1.186986         1.754046        -0.917900
 H        -3.084573        -0.400012        -0.804843
 H        -2.071721         0.181640         1.708704
 H        -2.564229        -1.587247         1.390943
 H         0.839010        -2.423743         0.452852
 H        -0.538652        -1.607080        -1.707543
 H        -1.535571        -3.367180        -0.272055
