19
Iteration:  3942charge 0 multiplicity 1
 C         1.633564         0.685198        -0.050362
 C         0.183901         0.140346        -0.263147
 C        -0.834303         0.508246        -1.071532
 C        -2.011079        -0.377026        -0.642206
 C        -1.856420        -0.284386         0.887799
 C        -0.504747        -0.973650         0.603521
 O         0.085934        -1.772829         1.601253
 C        -1.336417        -1.798909        -0.697535
 O        -2.014054        -2.958660        -0.294759
 H         2.017894         1.143868        -0.964744
 H         1.724358         1.444631         0.751252
 H         2.386037        -0.134418         0.261244
 H        -0.954743         1.191420        -1.893470
 H        -2.999774        -0.119087        -1.043179
 H        -1.769269         0.735545         1.359862
 H        -2.605114        -0.838723         1.354513
 H         0.925827        -2.080849         1.419018
 H        -0.686859        -1.959547        -1.650160
 H        -1.459881        -3.346275         0.447436
