19
Iteration:  1116charge 0 multiplicity 1
 C         1.505012         0.479057        -0.145486
 C         0.085119         0.225377        -0.021677
 C        -1.092975         0.762471        -0.519705
 C        -2.218534        -0.266212        -0.170483
 C        -1.729317        -0.686180         1.236864
 C        -0.446153        -1.112265         0.543352
 O         0.554094        -2.011831         1.081899
 C        -1.310111        -1.498806        -0.730049
 O        -2.035555        -2.650668        -0.885183
 H         1.944891        -0.330071        -0.683793
 H         1.542879         1.493515        -0.609573
 H         1.896975         0.468530         0.927454
 H        -1.193941         1.622002        -1.217527
 H        -3.259520        -0.291704        -0.513874
 H        -1.631804         0.185558         1.896452
 H        -2.398953        -1.411459         1.551434
 H         0.245231        -2.118649         1.956434
 H        -0.580847        -1.327942        -1.544628
 H        -1.339355        -3.391499        -1.100331
