19
Iteration:  4735
 C         1.586230         0.577863        -0.071380
 C         0.298489         0.043243        -0.318879
 C        -0.586245         0.133354        -1.357843
 C        -1.827351        -0.618503        -0.999390
 C        -1.980851        -0.119472         0.545115
 C        -0.630210        -0.814908         0.653347
 O        -0.036809        -1.233455         1.826414
 C        -1.232110        -1.952551        -0.401779
 O        -2.157672        -2.959301         0.068681
 H         1.719795         0.648797         1.064033
 H         2.358095        -0.166307        -0.358907
 H         1.849270         1.548616        -0.575848
 H        -0.428621         0.495825        -2.385484
 H        -2.780214        -0.505288        -1.601212
 H        -2.001119         0.932009         0.721752
 H        -2.810231        -0.427387         1.154293
 H         0.853239        -1.526332         1.517815
 H        -0.393682        -2.372791        -1.073191
 H        -1.771827        -3.387175         0.783414
