19
Iteration:  3195
 C         1.587353         0.639909         0.003745
 C         0.083849         0.229045         0.016496
 C        -1.008886         0.844996        -0.529114
 C        -2.120950        -0.311196        -0.288014
 C        -1.872188        -0.834178         1.208778
 C        -0.445832        -1.126929         0.487045
 O         0.558257        -1.943815         0.932026
 C        -1.332847        -1.502041        -0.749990
 O        -2.051551        -2.732012        -0.652932
 H         1.878822         1.345009         0.832781
 H         2.211808        -0.253956         0.191066
 H         1.733578         1.002009        -0.999791
 H        -1.113139         1.845264        -1.029643
 H        -3.157068         0.007414        -0.570377
 H        -2.010816        -0.178363         2.136968
 H        -2.559719        -1.668212         1.321650
 H         0.309315        -2.767708         1.303492
 H        -0.914429        -1.553863        -1.835241
 H        -2.126278        -3.098661        -1.473716
