19
Iteration:  1088
 C         1.526361         0.601531        -0.002727
 C         0.091781         0.267772        -0.101565
 C        -0.985771         0.798568        -0.538088
 C        -2.121092        -0.302620        -0.174632
 C        -1.721269        -0.767077         1.289135
 C        -0.437224        -1.114320         0.508773
 O         0.557071        -2.016635         1.053762
 C        -1.363389        -1.523542        -0.835974
 O        -2.173657        -2.716316        -0.905200
 H         1.974356        -0.425664        -0.066327
 H         1.671257         1.181383        -0.958418
 H         1.753060         1.217990         0.891802
 H        -1.311997         1.719369        -1.027189
 H        -3.140706        -0.293909        -0.558520
 H        -1.665383         0.130731         1.944242
 H        -2.405645        -1.577908         1.763652
 H         0.568200        -1.786244         2.008630
 H        -0.735199        -1.465829        -1.744880
 H        -1.677313        -3.360977        -0.255893
