19
Iteration:  2036
 C         1.498812         0.594966         0.059427
 C         0.088424         0.278969         0.060486
 C        -1.090409         0.844271        -0.408123
 C        -2.174313        -0.193666        -0.105095
 C        -1.725792        -0.810360         1.235399
 C        -0.436944        -1.133591         0.428954
 O         0.542128        -2.112070         0.693714
 C        -1.342720        -1.464274        -0.770558
 O        -2.024040        -2.660919        -0.713854
 H         1.716158         1.411849         0.707112
 H         2.123665        -0.322476         0.370031
 H         1.805194         0.937867        -0.960095
 H        -1.279256         1.538885        -1.168641
 H        -3.192165        -0.057730        -0.485513
 H        -1.510023        -0.092565         2.092462
 H        -2.322157        -1.747096         1.364948
 H         0.190876        -2.823035         1.211662
 H        -1.048258        -1.207545        -1.801496
 H        -1.537497        -3.522619        -0.892473
