19
Iteration:  2596charge 0 multiplicity 1
 C         1.553682         0.562490        -0.042180
 C         0.056747         0.202509         0.113668
 C        -1.110121         0.876563        -0.079701
 C        -2.218012        -0.241979         0.116597
 C        -1.661329        -0.961528         1.328781
 C        -0.446134        -1.194387         0.370076
 O         0.635231        -2.021704         0.730556
 C        -1.504021        -1.307297        -0.824322
 O        -1.990436        -2.679443        -1.101627
 H         1.694607         1.506286        -0.693383
 H         1.952985         0.754758         0.993174
 H         2.041549        -0.366878        -0.337024
 H        -1.309580         1.810102        -0.453319
 H        -3.259456         0.045344        -0.127933
 H        -1.411073        -0.314080         2.160122
 H        -2.304435        -1.839461         1.604943
 H         0.420152        -2.951879         0.904008
 H        -1.028077        -0.830240        -1.752805
 H        -2.118714        -2.694573        -2.037982
