19
Iteration:  4516
 C         1.567211         0.578685        -0.055692
 C         0.184132         0.031885        -0.315716
 C        -0.677058         0.316168        -1.271446
 C        -1.930961        -0.420568        -0.949805
 C        -1.924608        -0.182663         0.627137
 C        -0.586112        -0.938003         0.527682
 O        -0.066751        -1.481772         1.779396
 C        -1.209139        -1.890298        -0.512316
 O        -1.959663        -2.946077         0.071361
 H         1.687952         0.919739         0.991871
 H         2.256109        -0.222078        -0.241323
 H         1.687039         1.484447        -0.605846
 H        -0.605886         1.077253        -2.023736
 H        -2.830090        -0.422114        -1.587208
 H        -1.846666         0.919747         0.954637
 H        -2.687247        -0.725995         1.083926
 H         0.836147        -1.734310         1.585485
 H        -0.499978        -2.240517        -1.231196
 H        -1.633759        -3.017985         1.016058
