19
Iteration:  1625charge 0 multiplicity 1
 C         1.560598         0.492428        -0.231628
 C         0.095411         0.243282         0.121418
 C        -1.016591         0.860190        -0.336247
 C        -2.101437        -0.220735        -0.380317
 C        -1.820806        -0.804946         1.076481
 C        -0.488173        -1.177330         0.437384
 O         0.452441        -1.895136         1.257675
 C        -1.238232        -1.599358        -0.838057
 O        -2.118345        -2.712062        -0.756335
 H         2.190208        -0.477024        -0.019169
 H         1.744501         0.688257        -1.262749
 H         1.935736         1.344944         0.335317
 H        -1.039405         1.841202        -0.683476
 H        -3.171588        -0.101247        -0.586834
 H        -2.021252         0.111858         1.704195
 H        -2.287536        -1.716621         1.436513
 H         0.804088        -1.196608         1.925713
 H        -0.690523        -1.606347        -1.821029
 H        -1.667082        -3.558214        -1.105312
