19
Iteration:    98charge 0 multiplicity 1
 C         1.483517         0.648211         0.216904
 C         0.063816         0.223665         0.067476
 C        -1.179677         0.883912        -0.188981
 C        -2.136052        -0.310020         0.046964
 C        -1.428460        -0.958329         1.274654
 C        -0.345237        -1.227214         0.314844
 O         0.757748        -2.081333         0.680740
 C        -1.537776        -1.412535        -0.832062
 O        -2.360900        -2.532530        -1.084959
 H         2.120435         0.177780        -0.480776
 H         1.588315         1.724162        -0.157327
 H         1.858461         0.459576         1.343010
 H        -1.351957         1.926345        -0.342540
 H        -3.164591         0.007799         0.104685
 H        -1.053018        -0.283309         2.088982
 H        -1.902027        -1.849342         1.798762
 H         0.440457        -2.967270         0.663832
 H        -1.131485        -1.193706        -1.835731
 H        -1.761774        -3.211414        -1.406502
