19
Iteration:  1863charge 0 multiplicity 1
 C         1.482235         0.504179        -0.219818
 C         0.082196         0.181633         0.081333
 C        -1.043212         0.861887        -0.320161
 C        -2.152762        -0.137673        -0.224613
 C        -1.821606        -0.739708         1.135361
 C        -0.491411        -1.116356         0.499904
 O         0.478992        -2.053089         1.067000
 C        -1.355363        -1.394128        -0.848519
 O        -1.783512        -2.826228        -0.706857
 H         1.680228         0.460116        -1.248935
 H         1.581764         1.644685        -0.032815
 H         2.181490        -0.094576         0.344078
 H        -1.073467         1.789791        -0.908802
 H        -3.214239         0.123095        -0.455874
 H        -1.746765        -0.024373         1.976652
 H        -2.554671        -1.463066         1.400792
 H         0.002453        -2.937581         1.075528
 H        -0.757516        -1.119281        -1.736454
 H        -2.574607        -3.094075        -1.281786
