19
Iteration:  4386
 C         1.628229         0.430437        -0.125522
 C         0.092224         0.125164        -0.241539
 C        -0.777151         0.382883        -1.272070
 C        -1.954153        -0.524703        -0.744885
 C        -1.930624        -0.143759         0.739514
 C        -0.590629        -0.917580         0.633082
 O        -0.062190        -1.438769         1.775230
 C        -1.178450        -1.825664        -0.536591
 O        -1.802305        -2.979101        -0.171916
 H         2.257661        -0.313500        -0.674553
 H         2.000787         1.301993        -0.636932
 H         1.962926         0.500918         0.884902
 H        -0.810012         1.232935        -1.943809
 H        -2.857339        -0.628273        -1.320214
 H        -1.957813         1.000941         0.987515
 H        -2.695698        -0.598846         1.300343
 H         0.724869        -2.111580         1.502472
 H        -0.553895        -1.860620        -1.385681
 H        -2.681089        -3.020388         0.364384
