19
Iteration:  2837
 C         1.448146         0.728289        -0.026559
 C         0.104188         0.146993         0.034619
 C        -1.056719         0.882843        -0.209165
 C        -2.172397        -0.130493        -0.014955
 C        -1.764723        -0.900914         1.229413
 C        -0.412839        -1.220648         0.482490
 O         0.534390        -2.204586         0.886602
 C        -1.369807        -1.450049        -0.846004
 O        -2.007150        -2.665528        -1.078921
 H         1.897387         0.728268        -1.035115
 H         1.558881         1.728438         0.305340
 H         2.116076         0.093665         0.517143
 H        -1.280107         1.845913        -0.731170
 H        -3.196662         0.161982        -0.148943
 H        -1.611104        -0.419666         2.226420
 H        -2.270440        -1.840185         1.299167
 H         1.408428        -1.925904         1.007171
 H        -0.901479        -1.076530        -1.757325
 H        -2.428660        -2.920274        -0.291287
