19
Iteration:  3229
 C         1.441792         0.709781         0.025629
 C         0.075531         0.151642        -0.044566
 C        -1.009567         0.886691        -0.468061
 C        -2.065928        -0.278087        -0.326393
 C        -1.702695        -0.744116         1.169329
 C        -0.402655        -1.192484         0.452232
 O         0.547854        -2.013028         1.053947
 C        -1.365662        -1.557145        -0.845387
 O        -2.149674        -2.735751        -0.660584
 H         1.956366         0.794579         1.040365
 H         2.128393         0.183843        -0.659492
 H         1.522988         1.745621        -0.305489
 H        -1.052690         1.835593        -0.872188
 H        -3.160806        -0.118234        -0.524635
 H        -1.556071         0.085859         1.953431
 H        -2.287639        -1.590170         1.430334
 H         0.006122        -2.673174         1.375675
 H        -0.924833        -1.607953        -1.951076
 H        -1.614143        -3.256077        -1.205240
