19
Iteration:    40charge 0 multiplicity 1
 C         1.464697         0.785292         0.241007
 C         0.100224         0.246603         0.206540
 C        -1.087347         0.948598        -0.001628
 C        -2.108599        -0.182073        -0.036444
 C        -1.675734        -1.002541         1.196699
 C        -0.359741        -1.217002         0.197138
 O         0.551587        -2.322396         0.279198
 C        -1.459167        -1.321701        -0.925327
 O        -2.073840        -2.627520        -0.643701
 H         2.015391        -0.104854         0.699192
 H         1.770042         1.081637        -0.795900
 H         1.493373         1.755834         0.899039
 H        -1.126183         1.975568        -0.492475
 H        -3.162163         0.127262        -0.183979
 H        -1.329957        -0.561001         2.156874
 H        -2.364691        -1.910726         1.266996
 H         0.526998        -2.690379         1.189340
 H        -1.207685        -1.189938        -2.023145
 H        -1.710712        -3.237954        -1.309998
