19
Iteration:  3890
 C         1.592529         0.452376        -0.178435
 C         0.165920         0.198719        -0.122695
 C        -0.812661         0.659199        -0.939239
 C        -2.072896        -0.324927        -0.688547
 C        -2.032314        -0.451484         0.884012
 C        -0.553460        -1.006096         0.595123
 O         0.201317        -1.653492         1.608661
 C        -1.245256        -1.721630        -0.654570
 O        -1.942365        -2.928805        -0.360849
 H         2.155414        -0.381618        -0.615705
 H         1.815108         1.300393        -0.797386
 H         2.057625         0.626142         0.819053
 H        -0.690704         1.278010        -1.891024
 H        -2.974106        -0.274524        -1.245488
 H        -1.960046         0.483180         1.545122
 H        -2.695872        -1.210793         1.242269
 H         1.087377        -1.926058         1.399595
 H        -0.706938        -1.826849        -1.592135
 H        -1.706744        -3.283395         0.570465
