19
Iteration:  2430
 C         1.498216         0.751259         0.105703
 C         0.103611         0.238565         0.057305
 C        -1.091275         0.907784        -0.116355
 C        -2.147535        -0.186248        -0.080911
 C        -1.633500        -0.933252         1.218781
 C        -0.345258        -1.254250         0.305278
 O         0.657166        -2.173528         0.647162
 C        -1.428730        -1.431006        -0.884197
 O        -2.192088        -2.694150        -0.817544
 H         1.465989         1.816709        -0.008101
 H         1.927856         0.512222         1.127209
 H         2.108084         0.198429        -0.612658
 H        -1.170615         2.012604        -0.152186
 H        -3.204725         0.036400        -0.218954
 H        -1.366911        -0.343254         2.089426
 H        -2.246700        -1.836418         1.419787
 H         0.436176        -2.412377         1.558144
 H        -1.296622        -1.237946        -1.976248
 H        -2.514592        -2.848191        -1.656143
