19
Iteration:  1969charge 0 multiplicity 1
 C         1.503172         0.773681         0.176447
 C         0.100129         0.222966        -0.059730
 C        -1.128975         0.765232        -0.491480
 C        -2.061657        -0.310228        -0.270180
 C        -1.619235        -0.871101         1.185327
 C        -0.371613        -1.199097         0.371722
 O         0.614031        -2.099675         0.873463
 C        -1.385806        -1.512130        -0.867133
 O        -2.233956        -2.581240        -0.597131
 H         2.013855         0.343562         1.047842
 H         2.217737         0.643474        -0.674819
 H         1.678881         1.880468         0.317217
 H        -1.214837         1.865500        -0.694083
 H        -3.128850        -0.029368        -0.472297
 H        -1.329902        -0.141613         2.008434
 H        -2.200733        -1.808890         1.486590
 H        -0.004593        -2.716237         1.323419
 H        -1.242458        -1.144314        -1.894066
 H        -2.260940        -3.295417        -1.288265
