19
Iteration:  1537charge 0 multiplicity 1
 C         1.550825         0.635501         0.108696
 C         0.107094         0.135193        -0.177164
 C        -1.033817         0.827536        -0.605942
 C        -2.139508        -0.163534        -0.342944
 C        -1.712584        -0.539040         1.130321
 C        -0.473202        -1.157815         0.446152
 O         0.472333        -2.048748         1.054019
 C        -1.367784        -1.552247        -0.818184
 O        -2.034926        -2.917211        -0.624244
 H         2.112138         0.743150        -0.864811
 H         1.594999         1.627042         0.552225
 H         2.002872         0.050510         0.866339
 H        -1.204808         1.948868        -0.775005
 H        -3.164353         0.027757        -0.663575
 H        -1.596895         0.404874         1.714205
 H        -2.282739        -1.376550         1.621324
 H        -0.054087        -2.294192         1.907477
 H        -1.142166        -1.367195        -1.892235
 H        -1.395760        -3.411182        -0.118690
