19
Iteration:  4459charge 0 multiplicity 1
 C         1.554267         0.578873        -0.102919
 C         0.204072         0.160158        -0.318390
 C        -0.748742         0.382389        -1.280688
 C        -1.867093        -0.600879        -0.816313
 C        -1.910690        -0.177573         0.724573
 C        -0.552593        -0.904629         0.624538
 O         0.078451        -1.386831         1.846443
 C        -1.201371        -1.953976        -0.478163
 O        -2.069327        -2.994932        -0.164732
 H         1.688906         1.626873        -0.292940
 H         1.880158         0.551902         0.955991
 H         2.309206        -0.076723        -0.590493
 H        -0.602483         0.721713        -2.319552
 H        -2.849182        -0.669003        -1.247952
 H        -2.002683         0.899580         0.899840
 H        -2.696634        -0.650356         1.295176
 H         0.681380        -2.037613         1.434896
 H        -0.345019        -2.291935        -1.085574
 H        -2.912211        -2.638572        -0.031513
