19
Iteration:   453
 C         1.545222         0.696364        -0.117732
 C         0.046253         0.127248         0.046843
 C        -1.081229         0.825565        -0.156771
 C        -2.155713        -0.271801         0.010126
 C        -1.671815        -0.929137         1.243551
 C        -0.367079        -1.272122         0.421676
 O         0.730797        -1.995757         0.960114
 C        -1.426976        -1.421960        -0.870325
 O        -2.250711        -2.578975        -0.987028
 H         2.133678        -0.068832        -0.728295
 H         1.357755         1.662237        -0.489536
 H         1.965827         0.737341         0.873717
 H        -1.278220         1.824504        -0.547799
 H        -3.154022         0.001471        -0.278455
 H        -1.511828        -0.305293         2.077605
 H        -2.069271        -1.887934         1.465687
 H         0.593467        -2.914166         0.986613
 H        -1.078396        -0.988764        -1.825478
 H        -2.262469        -2.776531        -1.904633
