19
Iteration:  3550
 C         1.468738         0.639173         0.039993
 C         0.114115         0.189039        -0.062157
 C        -0.951159         0.667652        -0.764893
 C        -2.034942        -0.300802        -0.496511
 C        -1.894836        -0.583390         1.055072
 C        -0.512774        -1.104724         0.503545
 O         0.381462        -1.937779         1.191022
 C        -1.208208        -1.678464        -0.727148
 O        -2.003971        -2.734617        -0.450621
 H         1.812425         1.321613        -0.753311
 H         1.768412         1.141452         0.957026
 H         2.244440        -0.177083        -0.086523
 H        -0.877860         1.385407        -1.659075
 H        -2.999783        -0.334413        -1.092090
 H        -1.845006         0.342075         1.653995
 H        -2.451504        -1.396653         1.610018
 H         0.587352        -1.614875         2.012348
 H        -0.659003        -1.660575        -1.676128
 H        -2.353945        -3.058358        -1.249483
