19
Iteration:  3082
 C         1.566192         0.695279        -0.014010
 C         0.113593         0.277661         0.017265
 C        -1.081993         0.878133        -0.349465
 C        -2.092074        -0.276003        -0.204306
 C        -1.781222        -0.800297         1.154030
 C        -0.420382        -1.202428         0.431650
 O         0.510919        -2.022270         0.946614
 C        -1.250935        -1.575051        -0.800137
 O        -2.139501        -2.709934        -0.724895
 H         1.972274         0.643281        -0.982835
 H         1.560414         1.740988         0.311422
 H         2.258857         0.183442         0.658446
 H        -1.241077         1.809207        -0.761473
 H        -3.105120        -0.126678        -0.496987
 H        -1.702170        -0.072179         1.930859
 H        -2.541393        -1.617052         1.411153
 H         0.153034        -2.994078         1.063554
 H        -0.802613        -1.407913        -1.831421
 H        -2.091145        -3.272613        -1.540555
