19
Iteration:   970
 C         1.514393         0.649524         0.080401
 C         0.072195         0.200302        -0.092880
 C        -1.055268         0.859764        -0.398153
 C        -2.118875        -0.310102        -0.219599
 C        -1.699218        -0.801200         1.129800
 C        -0.411253        -1.151803         0.391882
 O         0.631257        -2.023997         0.985255
 C        -1.359172        -1.535219        -0.853880
 O        -2.211985        -2.666514        -0.709347
 H         1.480484         1.316823         1.002759
 H         2.156157        -0.131736         0.240480
 H         1.875577         1.038200        -0.908699
 H        -1.163145         1.747475        -1.002991
 H        -3.115289        -0.138290        -0.580084
 H        -1.633177        -0.053661         1.878670
 H        -2.290204        -1.715180         1.395387
 H         0.293698        -2.030527         1.940145
 H        -0.941285        -1.308355        -1.849091
 H        -1.646113        -3.475023        -0.861668
