19
Iteration:  3437
 C         1.532319         0.595425         0.005749
 C         0.108244         0.166120        -0.029055
 C        -0.966096         0.726569        -0.598248
 C        -2.097292        -0.275889        -0.464077
 C        -1.876813        -0.648047         1.081247
 C        -0.474374        -1.081032         0.503072
 O         0.514749        -1.899750         1.135389
 C        -1.303540        -1.565546        -0.784743
 O        -2.070269        -2.799298        -0.580538
 H         1.797929         0.729128         1.064862
 H         1.989688        -0.267212        -0.422981
 H         1.702735         1.507626        -0.531235
 H        -1.190293         1.624905        -1.245483
 H        -3.030799        -0.184311        -0.989368
 H        -1.809215         0.175197         1.840469
 H        -2.499243        -1.504327         1.402445
 H         0.216519        -1.573296         2.058947
 H        -0.778085        -1.589598        -1.707983
 H        -1.540138        -3.608378        -0.786182
