19
Iteration:  4780
 C         1.657432         0.546089        -0.190238
 C         0.253279        -0.090535        -0.297131
 C        -0.599922         0.137367        -1.349700
 C        -1.832528        -0.649552        -0.962982
 C        -1.983485        -0.254356         0.580938
 C        -0.626737        -0.855143         0.635083
 O        -0.097558        -1.153853         1.893294
 C        -1.142295        -1.948278        -0.417688
 O        -2.177118        -2.780925         0.011547
 H         2.371451        -0.119386         0.442967
 H         2.328644         0.933815        -0.964674
 H         1.408816         1.439138         0.458418
 H        -0.442970         0.615243        -2.259066
 H        -2.610936        -0.834328        -1.737492
 H        -2.155570         0.681630         0.945573
 H        -2.798375        -0.871231         1.050561
 H         0.833288        -0.872506         1.976906
 H        -0.292783        -2.435164        -1.052748
 H        -1.939187        -3.061499         0.838159
