19
Iteration:  1604charge 0 multiplicity 1
 C         1.520648         0.500873        -0.218703
 C         0.086161         0.226898         0.024911
 C        -1.014343         0.905100        -0.365379
 C        -2.055354        -0.165853        -0.347886
 C        -1.891367        -0.780748         1.072499
 C        -0.444392        -1.125764         0.509396
 O         0.409393        -1.971176         1.201448
 C        -1.225883        -1.559436        -0.842399
 O        -2.035923        -2.769982        -0.659607
 H         1.974786        -0.479941        -0.600385
 H         1.616855         1.087942        -1.078324
 H         2.030339         1.039101         0.581692
 H        -1.108849         1.809907        -0.877760
 H        -3.005729        -0.038079        -0.877019
 H        -1.866660        -0.047522         2.003825
 H        -2.561219        -1.632116         1.183329
 H         0.500016        -1.773271         2.111744
 H        -0.728809        -1.470865        -1.866217
 H        -1.496274        -3.511629        -1.102872
