19
Iteration:  2102
 C         1.450324         0.620331        -0.158527
 C         0.069632         0.230758         0.068274
 C        -1.014367         0.852247        -0.388477
 C        -2.136267        -0.187546        -0.045277
 C        -1.786370        -0.842512         1.323285
 C        -0.400142        -1.189574         0.514002
 O         0.583596        -2.061984         0.985059
 C        -1.358850        -1.441069        -0.789878
 O        -2.026392        -2.695523        -0.924378
 H         1.371854         1.430102        -0.825967
 H         1.971952         0.812410         0.846142
 H         1.902853        -0.260740        -0.672171
 H        -1.167267         1.789603        -0.916648
 H        -3.112222         0.065142        -0.446850
 H        -1.660115        -0.354361         2.355470
 H        -2.235917        -1.884770         1.339837
 H         0.347089        -3.013179         0.770961
 H        -0.897702        -1.270792        -1.767230
 H        -2.277137        -2.565648        -1.801463
