19
Iteration:  1543charge 0 multiplicity 1
 C         1.512299         0.605826         0.095748
 C         0.097414         0.182990        -0.165615
 C        -1.011518         0.818035        -0.605327
 C        -2.162891        -0.189245        -0.342430
 C        -1.702936        -0.507001         1.144241
 C        -0.434783        -1.104111         0.470924
 O         0.432621        -2.070191         1.057367
 C        -1.404644        -1.567881        -0.772142
 O        -1.992655        -2.894884        -0.675390
 H         2.038717         0.555506        -0.839515
 H         1.485183         1.714780         0.381922
 H         2.090419        -0.029266         0.835088
 H        -1.032229         1.831972        -0.931279
 H        -3.220816        -0.080825        -0.622430
 H        -1.486334         0.360529         1.742584
 H        -2.324857        -1.252012         1.652761
 H         0.138320        -2.459372         1.874004
 H        -1.101391        -1.400724        -1.807919
 H        -1.304644        -3.533307        -0.185729
