19
Iteration:  1290
 C         1.548142         0.730278         0.070240
 C         0.137133         0.192573        -0.019537
 C        -0.945461         0.751254        -0.594123
 C        -2.061014        -0.280127        -0.370382
 C        -1.876893        -0.682552         1.113047
 C        -0.424815        -1.134248         0.509303
 O         0.570411        -1.988370         0.938842
 C        -1.371930        -1.561143        -0.747451
 O        -2.159213        -2.741868        -0.532178
 H         1.729777         1.492107        -0.716863
 H         1.542228         1.216306         0.993221
 H         2.313541        -0.038027        -0.027969
 H        -1.031970         1.543111        -1.269691
 H        -3.093060        -0.163129        -0.731902
 H        -2.087871         0.175019         1.830968
 H        -2.523228        -1.453456         1.465489
 H         0.120912        -2.893833         1.067401
 H        -0.855616        -1.687840        -1.722753
 H        -1.712932        -3.558381        -0.797279
