19
Iteration:  3992
 C         1.593155         0.619099         0.083017
 C         0.143646         0.190536        -0.225969
 C        -0.884194         0.469023        -1.155257
 C        -2.047014        -0.477639        -0.773543
 C        -1.909053        -0.343402         0.773299
 C        -0.486628        -0.969464         0.504745
 O         0.257814        -1.769446         1.557198
 C        -1.184356        -1.792802        -0.618702
 O        -2.140045        -2.756517        -0.146610
 H         1.797967         1.660014         0.407278
 H         1.956389        -0.024652         0.904779
 H         2.277151         0.386356        -0.664586
 H        -1.014613         1.371755        -1.684713
 H        -2.923749        -0.498714        -1.485342
 H        -1.996156         0.661658         1.136824
 H        -2.515964        -1.043698         1.490690
 H         1.230013        -2.048148         1.265894
 H        -0.581834        -2.054787        -1.450505
 H        -1.795956        -3.199155         0.601483
