19
Iteration:  1548charge 0 multiplicity 1
 C         1.474852         0.597898         0.075148
 C         0.101397         0.217878        -0.126736
 C        -0.989737         0.792501        -0.615434
 C        -2.158194        -0.233772        -0.316892
 C        -1.708303        -0.494206         1.158289
 C        -0.428217        -1.072661         0.461751
 O         0.403840        -2.076729         1.046902
 C        -1.433664        -1.580290        -0.730700
 O        -1.952955        -2.863178        -0.708394
 H         2.083855         0.389099        -0.863798
 H         1.466925         1.651873         0.263080
 H         2.026851        -0.022916         0.741183
 H        -0.964340         1.793396        -1.156158
 H        -3.207080        -0.064772        -0.566960
 H        -1.427936         0.329621         1.872171
 H        -2.405448        -1.175212         1.711143
 H         0.169652        -2.520172         1.887823
 H        -0.886868        -1.519960        -1.715539
 H        -1.331798        -3.418959        -0.337056
