19
Iteration:  1113charge 0 multiplicity 1
 C         1.533016         0.494153        -0.140472
 C         0.033304         0.223069        -0.048743
 C        -1.095452         0.750025        -0.512210
 C        -2.208982        -0.269502        -0.172077
 C        -1.694534        -0.671455         1.229112
 C        -0.445136        -1.110147         0.552788
 O         0.558784        -2.014541         1.069742
 C        -1.297143        -1.505031        -0.697699
 O        -2.040054        -2.636979        -0.906196
 H         1.959840        -0.417476        -0.694220
 H         1.583608         1.410247        -0.586800
 H         1.713869         0.578549         1.017448
 H        -1.188415         1.571916        -1.169735
 H        -3.255438        -0.272713        -0.521797
 H        -1.656085         0.155089         1.955969
 H        -2.490744        -1.454941         1.531282
 H         0.231560        -2.082084         2.041440
 H        -0.596854        -1.385711        -1.557704
 H        -1.460518        -3.470235        -1.040446
