19
Iteration:  3567charge 0 multiplicity 1
 C         1.529753         0.584912         0.021006
 C         0.086592         0.163639        -0.107777
 C        -0.937176         0.738103        -0.870295
 C        -2.073948        -0.281489        -0.540560
 C        -1.891712        -0.572923         1.021955
 C        -0.443542        -1.048489         0.592901
 O         0.463798        -1.903427         1.252083
 C        -1.305767        -1.604607        -0.697181
 O        -2.038501        -2.872786        -0.472860
 H         1.659218         1.635910        -0.311290
 H         1.880808         0.466177         1.095230
 H         2.225115        -0.100282        -0.475295
 H        -1.025775         1.731289        -1.133854
 H        -3.060074        -0.029420        -0.797339
 H        -2.013679         0.169051         1.800740
 H        -2.647886        -1.364088         1.208511
 H         0.366330        -1.710681         2.139890
 H        -0.648126        -1.750489        -1.592477
 H        -2.069842        -3.246246        -1.310057
