19
Iteration:  4112charge 0 multiplicity 1
 C         1.625506         0.392497        -0.218215
 C         0.159759         0.025317        -0.194326
 C        -0.741928         0.458459        -1.053504
 C        -2.007380        -0.301503        -0.685680
 C        -2.084230        -0.440990         0.795181
 C        -0.608424        -0.958982         0.641050
 O         0.046186        -1.484278         1.688694
 C        -1.181535        -1.707190        -0.621831
 O        -1.829534        -2.853543        -0.159002
 H         2.400518        -0.402324         0.035990
 H         1.924799         0.857071        -1.187181
 H         1.832079         1.198355         0.480312
 H        -0.633643         0.940152        -1.993315
 H        -2.890307        -0.231965        -1.379533
 H        -2.270880         0.377567         1.500366
 H        -2.696886        -1.292900         1.195114
 H         0.918906        -1.471813         1.443869
 H        -0.437077        -1.886590        -1.519038
 H        -2.523773        -3.149568        -0.840068
