19
Iteration:   211
 C         1.604523         0.601567        -0.066803
 C         0.007358         0.323501         0.090464
 C        -1.149990         0.885174        -0.183880
 C        -2.192585        -0.154752         0.185652
 C        -1.614101        -0.933248         1.375120
 C        -0.478782        -1.138691         0.406342
 O         0.410342        -2.213732         0.637209
 C        -1.453383        -1.316414        -0.751923
 O        -1.778166        -2.730487        -0.988957
 H         1.587351         1.418648        -0.783238
 H         1.979507         0.763405         0.901062
 H         1.929470        -0.288262        -0.451137
 H        -1.455125         1.853544        -0.688516
 H        -3.275568         0.057924         0.026373
 H        -1.473740        -0.521879         2.345984
 H        -2.101306        -1.877710         1.416585
 H         0.558931        -2.829265        -0.147897
 H        -1.187074        -0.830436        -1.666221
 H        -2.306552        -2.709646        -1.858516
