19
Iteration:   701charge 0 multiplicity 1
 C         1.505905         0.598032        -0.162662
 C         0.041231         0.270065         0.130344
 C        -1.056652         0.895611        -0.185842
 C        -2.197674        -0.186922        -0.083326
 C        -1.783464        -0.867788         1.209250
 C        -0.410996        -1.157965         0.441925
 O         0.424072        -2.249863         0.627362
 C        -1.373858        -1.345994        -0.802127
 O        -1.872025        -2.649980        -0.708925
 H         2.031618         0.509892         0.761725
 H         1.849649        -0.260047        -0.792280
 H         1.492585         1.542758        -0.688003
 H        -1.299554         1.851445        -0.703890
 H        -3.194462         0.076574        -0.404804
 H        -1.725820        -0.376953         2.200382
 H        -2.401767        -1.826784         1.450179
 H         0.855034        -2.144618         1.459105
 H        -0.981522        -1.108563        -1.792680
 H        -1.115249        -3.191820        -0.637656
