19
Iteration:  2539
 C         1.492681         0.812034        -0.013880
 C         0.081549         0.283995         0.144668
 C        -1.063981         0.828802        -0.186071
 C        -2.125177        -0.271144         0.026882
 C        -1.633819        -1.059267         1.268531
 C        -0.369843        -1.210672         0.403384
 O         0.464862        -2.254091         0.808563
 C        -1.386670        -1.299391        -0.897386
 O        -2.100661        -2.591599        -0.923484
 H         1.687359         1.328786        -0.976552
 H         1.968871         1.511927         0.734715
 H         2.254081         0.026138        -0.087176
 H        -1.397913         1.905845        -0.350572
 H        -3.191436        -0.068480        -0.224250
 H        -1.637413        -0.625231         2.219153
 H        -2.091934        -2.048702         1.301032
 H         1.105112        -2.549305         0.053750
 H        -0.843412        -1.005387        -1.853219
 H        -2.581369        -2.825236        -1.801423
