19
Iteration:  3530charge 0 multiplicity 1
 C         1.545556         0.716971         0.042157
 C         0.136653         0.270406        -0.075090
 C        -0.958949         0.699666        -0.771730
 C        -2.077314        -0.329775        -0.485912
 C        -1.835082        -0.571314         1.005156
 C        -0.483362        -1.095843         0.517171
 O         0.309994        -2.069910         1.220384
 C        -1.247795        -1.592083        -0.775547
 O        -1.985829        -2.848762        -0.424349
 H         2.044938         0.778549        -0.958674
 H         1.459528         1.748301         0.506350
 H         2.179774        -0.035871         0.606625
 H        -1.028944         1.664533        -1.395887
 H        -3.127628        -0.194731        -0.917134
 H        -1.805214         0.375152         1.604781
 H        -2.510435        -1.340469         1.360996
 H         0.896158        -1.666311         1.882241
 H        -0.536288        -1.751567        -1.690731
 H        -2.676895        -2.931650        -1.072218
