19
Iteration:  2644charge 0 multiplicity 1
 C         1.516252         0.712992         0.050416
 C         0.039451         0.223715         0.204798
 C        -1.130054         0.893319        -0.022303
 C        -2.158203        -0.244320        -0.177989
 C        -1.774884        -0.994178         1.242303
 C        -0.337620        -1.199866         0.355186
 O         0.547676        -2.251475         0.501756
 C        -1.367422        -1.362916        -0.882836
 O        -1.997304        -2.544799        -0.740046
 H         1.533789         1.782886         0.189203
 H         2.261502         0.193980         0.675121
 H         1.833549         0.448532        -1.020417
 H        -1.198591         1.964056        -0.481297
 H        -3.222343        -0.052434        -0.277718
 H        -1.595150        -0.309439         2.193644
 H        -2.329697        -1.915541         1.462697
 H         0.704584        -2.481700         1.440582
 H        -1.022627        -1.070239        -1.875482
 H        -2.178969        -3.031466        -1.612014
