19
Iteration:  4659
 C         1.697573         0.499894        -0.102062
 C         0.226211         0.087781        -0.313998
 C        -0.662345         0.202330        -1.271354
 C        -1.862015        -0.620758        -0.946672
 C        -2.069678        -0.237850         0.544368
 C        -0.600733        -0.868605         0.643884
 O        -0.046924        -1.190824         1.875600
 C        -1.196356        -1.933405        -0.477118
 O        -2.098006        -2.859702         0.081903
 H         1.993899         1.427207        -0.678768
 H         2.009407         0.785025         0.892138
 H         2.265296        -0.370228        -0.472813
 H        -0.499703         0.869214        -2.185151
 H        -2.588887        -0.596039        -1.837887
 H        -2.201288         0.820650         0.662475
 H        -2.725432        -0.860522         1.186324
 H         0.811758        -1.567324         1.610926
 H        -0.423461        -2.321150        -1.212466
 H        -1.697832        -3.778889        -0.040657
