19
Iteration:  2918
 C         1.476276         0.638257         0.042130
 C         0.100996         0.208949         0.038674
 C        -1.081434         0.764344        -0.340302
 C        -2.180581        -0.207603        -0.042577
 C        -1.684539        -0.739034         1.304072
 C        -0.425611        -1.151391         0.421667
 O         0.413371        -2.126468         0.820317
 C        -1.398052        -1.474925        -0.819735
 O        -1.907834        -2.725369        -1.048583
 H         1.531231         1.607022         0.565680
 H         1.962373        -0.217325         0.618973
 H         1.957026         0.653293        -0.996014
 H        -1.343279         1.891355        -0.499949
 H        -3.240400         0.189268        -0.123907
 H        -1.632116        -0.107312         2.193543
 H        -2.227251        -1.632194         1.624002
 H         1.248336        -1.871963         1.099918
 H        -0.722034        -1.150858        -1.702831
 H        -2.268918        -3.068054        -0.270350
