19
Iteration:    46charge 0 multiplicity 1
 C         1.452410         0.780479         0.263419
 C         0.020693         0.209463         0.188554
 C        -1.032672         0.907943        -0.090589
 C        -2.175419        -0.124784        -0.011929
 C        -1.614213        -0.999793         1.221365
 C        -0.382395        -1.213536         0.229172
 O         0.586903        -2.320568         0.291992
 C        -1.432885        -1.294343        -0.917704
 O        -2.086724        -2.625722        -0.677010
 H         2.174827        -0.004043         0.618316
 H         1.745962         1.150621        -0.704265
 H         1.375207         1.541405         0.946468
 H        -1.049962         1.911182        -0.412451
 H        -3.249715         0.033579        -0.121648
 H        -1.304822        -0.606664         2.185667
 H        -2.230847        -1.840523         1.283939
 H         0.537022        -2.684233         1.147317
 H        -1.234858        -1.181459        -1.969108
 H        -1.751986        -3.230321        -1.293931
