19
Iteration:   608charge 0 multiplicity 1
 C         1.531865         0.784826        -0.040309
 C         0.183762         0.253154         0.113955
 C        -1.096028         0.875830        -0.210992
 C        -2.087626        -0.242676        -0.158877
 C        -1.745383        -0.958964         1.148328
 C        -0.377363        -1.225978         0.474529
 O         0.748726        -2.126105         0.841218
 C        -1.419780        -1.504364        -0.879534
 O        -2.354469        -2.615433        -0.824791
 H         1.750348         1.788985         0.415778
 H         2.254180         0.175517         0.473436
 H         1.772964         0.826645        -1.119006
 H        -1.233857         1.964811        -0.633339
 H        -3.146358        -0.110126        -0.512114
 H        -1.815866        -0.452119         2.102374
 H        -2.344530        -1.780687         1.328687
 H         0.723026        -2.366623         1.829071
 H        -1.000680        -1.459429        -1.914787
 H        -2.101278        -3.368125        -1.476334
