19
Iteration:  3851charge 0 multiplicity 1
 C         1.536563         0.427484        -0.107329
 C         0.048387         0.184418        -0.196811
 C        -0.862143         0.633841        -1.028676
 C        -2.029576        -0.337855        -0.644564
 C        -1.946332        -0.440580         0.985892
 C        -0.454842        -0.992286         0.522297
 O         0.156398        -1.724494         1.571114
 C        -1.218827        -1.672004        -0.617791
 O        -1.898432        -2.871847        -0.400863
 H         1.863833        -0.364696         0.631154
 H         2.007366         0.045460        -1.086080
 H         1.870803         1.423773         0.149831
 H        -0.777851         1.650353        -1.508177
 H        -2.974494        -0.352889        -1.235881
 H        -1.877674         0.342428         1.658847
 H        -2.768469        -1.143383         1.419266
 H         1.090197        -1.542496         1.459425
 H        -0.584157        -1.913850        -1.540259
 H        -1.826568        -3.099892         0.510839
