19
Iteration:   274
 C         1.495495         0.778059         0.155752
 C         0.094534         0.270932         0.106254
 C        -1.021695         0.873221        -0.167597
 C        -2.058357        -0.279134        -0.059170
 C        -1.586753        -1.061145         1.199428
 C        -0.360428        -1.218041         0.366830
 O         0.749181        -2.095286         0.587403
 C        -1.516488        -1.437083        -0.907648
 O        -2.370164        -2.597660        -0.774438
 H         1.497633         1.829776         0.522394
 H         2.292650         0.242604         0.774301
 H         2.102271         0.871443        -0.793751
 H        -1.448209         1.722796        -0.757173
 H        -3.146784        -0.159746        -0.129339
 H        -1.612357        -0.526948         2.179167
 H        -2.149500        -1.989968         1.197719
 H         0.471740        -2.606390         1.369302
 H        -1.269560        -1.227594        -1.976731
 H        -2.315578        -3.052814        -1.602779
