19
Iteration:  1755charge 0 multiplicity 1
 C         1.514718         0.669253         0.223884
 C         0.053780         0.257018        -0.067772
 C        -1.014290         0.795615        -0.597208
 C        -2.081490        -0.204227        -0.293300
 C        -1.743643        -0.597112         1.210483
 C        -0.455315        -1.155481         0.455440
 O         0.552945        -2.122227         0.766885
 C        -1.330758        -1.556318        -0.788021
 O        -2.148064        -2.801253        -0.624962
 H         1.437064         1.724110         0.393054
 H         1.866617         0.005162         1.056794
 H         2.189181         0.491352        -0.611050
 H        -1.133738         1.780455        -1.092888
 H        -3.168098        -0.042664        -0.516367
 H        -1.661684         0.373854         1.730010
 H        -2.354375        -1.355017         1.621995
 H         0.562723        -2.624574         1.554762
 H        -0.927860        -1.498873        -1.805493
 H        -1.567079        -3.450932        -0.211470
