19
Iteration:  4392
 C         1.653827         0.428537        -0.122665
 C         0.118049         0.148807        -0.256342
 C        -0.796023         0.368325        -1.228350
 C        -1.981501        -0.483697        -0.749565
 C        -1.931576        -0.168179         0.733420
 C        -0.569369        -0.909224         0.598270
 O        -0.067125        -1.419541         1.744730
 C        -1.174686        -1.826575        -0.520913
 O        -1.814795        -2.986076        -0.140429
 H         2.216492        -0.261450        -0.758618
 H         2.015819         1.468273        -0.394499
 H         1.928522         0.271228         0.966627
 H        -0.727940         1.055862        -2.121205
 H        -2.903690        -0.575404        -1.357046
 H        -2.030267         0.863928         0.968301
 H        -2.607090        -0.834042         1.382809
 H         0.712080        -2.010357         1.646325
 H        -0.509900        -2.031868        -1.431758
 H        -2.775897        -3.009065         0.139592
