19
Iteration:   275charge 0 multiplicity 1
 C         1.499773         0.778247         0.160365
 C         0.094234         0.271147         0.109176
 C        -1.022859         0.872298        -0.179262
 C        -2.057149        -0.279625        -0.055092
 C        -1.583061        -1.056932         1.203794
 C        -0.354869        -1.219566         0.361011
 O         0.743735        -2.098127         0.590405
 C        -1.521945        -1.431832        -0.912255
 O        -2.372906        -2.601461        -0.778287
 H         1.482378         1.862703         0.537117
 H         2.277427         0.223614         0.761864
 H         2.075020         0.883172        -0.781759
 H        -1.441419         1.696452        -0.740754
 H        -3.154441        -0.157237        -0.122219
 H        -1.586676        -0.551558         2.171567
 H        -2.138674        -1.979434         1.216276
 H         0.511389        -2.576063         1.373118
 H        -1.263686        -1.222947        -1.963776
 H        -2.302200        -3.052678        -1.582051
