19
Iteration:  3296
 C         1.463223         0.630317         0.052201
 C         0.037620         0.153512         0.025704
 C        -1.005772         0.816469        -0.529347
 C        -2.108779        -0.118033        -0.361156
 C        -1.741319        -0.709995         1.125148
 C        -0.496725        -1.132880         0.391818
 O         0.539822        -1.955418         0.964695
 C        -1.364453        -1.591951        -0.766097
 O        -2.006423        -2.791321        -0.554883
 H         1.941799        -0.322557        -0.277365
 H         1.490683         1.432137        -0.674993
 H         1.935974         0.865700         1.026712
 H        -0.921309         1.868136        -0.905867
 H        -3.139527         0.015136        -0.640327
 H        -1.518555         0.104450         1.846322
 H        -2.370564        -1.559957         1.384465
 H         0.163396        -2.744180         1.559916
 H        -0.634863        -1.681547        -1.680179
 H        -1.847166        -3.457719        -1.326021
