19
Iteration:  3276charge 0 multiplicity 1
 C         1.549916         0.669436         0.051676
 C         0.124579         0.193454        -0.061822
 C        -0.997912         0.800849        -0.563888
 C        -2.121668        -0.271444        -0.256184
 C        -1.817969        -0.629146         1.216598
 C        -0.444388        -1.108212         0.495278
 O         0.530856        -2.035439         0.916410
 C        -1.367214        -1.521869        -0.770262
 O        -2.078753        -2.834445        -0.654982
 H         2.295810        -0.055871         0.446958
 H         1.864688         1.234036        -0.845965
 H         1.535817         1.435206         0.906300
 H        -1.258794         1.784165        -1.101049
 H        -3.092077        -0.054709        -0.672199
 H        -1.742512         0.235025         1.814671
 H        -2.542911        -1.431301         1.469136
 H         0.168462        -2.765677         1.460048
 H        -0.989691        -1.418662        -1.848857
 H        -1.535184        -3.508269        -1.024001
