19
Iteration:  1086
 C         1.544416         0.608946         0.007709
 C         0.093424         0.264692        -0.072173
 C        -0.989260         0.794771        -0.535919
 C        -2.125065        -0.302736        -0.182370
 C        -1.718614        -0.776741         1.274059
 C        -0.438794        -1.120255         0.491311
 O         0.558083        -2.017803         1.049293
 C        -1.376753        -1.514142        -0.842253
 O        -2.172716        -2.727132        -0.888707
 H         1.980890        -0.347481        -0.068348
 H         1.713494         1.179926        -0.999882
 H         1.699399         1.249123         0.831532
 H        -1.252586         1.756189        -1.025553
 H        -3.148880        -0.248320        -0.551057
 H        -1.664663         0.108590         1.950211
 H        -2.381348        -1.518242         1.719171
 H         0.571276        -1.730561         2.035578
 H        -0.793365        -1.498681        -1.776958
 H        -1.724037        -3.352555        -0.254123
