19
Iteration:  4486charge 0 multiplicity 1
 C         1.586408         0.664122        -0.107495
 C         0.277092        -0.016371        -0.314647
 C        -0.677451         0.187332        -1.305599
 C        -1.954886        -0.451139        -0.850817
 C        -1.923005        -0.224820         0.753897
 C        -0.571875        -0.910394         0.605023
 O        -0.001740        -1.380582         1.846009
 C        -1.256743        -1.875059        -0.556309
 O        -2.003468        -2.953077        -0.114997
 H         1.386209         1.655254         0.383089
 H         2.178397         0.096599         0.626967
 H         2.218378         0.847405        -0.991187
 H        -0.594465         0.900608        -2.147114
 H        -2.933113        -0.425327        -1.412275
 H        -1.962549         0.837781         1.110024
 H        -2.681934        -0.911046         1.239181
 H         0.556546        -2.078791         1.500718
 H        -0.462972        -2.116033        -1.274787
 H        -2.345696        -2.815150         0.732912
