19
Iteration:  2423charge 0 multiplicity 1
 C         1.536256         0.777499         0.091732
 C         0.108907         0.239899         0.076536
 C        -1.100973         0.895953        -0.094895
 C        -2.111813        -0.218132        -0.069332
 C        -1.646449        -0.971890         1.170187
 C        -0.359562        -1.275325         0.299162
 O         0.633671        -2.157489         0.664175
 C        -1.442145        -1.427697        -0.929410
 O        -2.194675        -2.668225        -0.780811
 H         1.596421         1.914307        -0.048087
 H         1.977368         0.447745         1.007081
 H         2.157628         0.422119        -0.740719
 H        -1.297302         2.006369        -0.257723
 H        -3.182493         0.122160        -0.130080
 H        -1.637019        -0.230338         2.037800
 H        -2.148913        -1.892944         1.645880
 H         0.310321        -2.639125         1.523205
 H        -1.041938        -1.126514        -1.901204
 H        -2.524011        -2.927280        -1.684685
