19
Iteration:   183
 C         1.438338         0.616544        -0.178626
 C         0.089889         0.160563         0.035491
 C        -1.163103         0.910552        -0.006555
 C        -2.238129        -0.195745         0.138051
 C        -1.658329        -0.871740         1.373558
 C        -0.467786        -1.211204         0.411538
 O         0.436107        -2.259517         0.680056
 C        -1.424815        -1.229475        -0.804933
 O        -1.659443        -2.635278        -1.021983
 H         1.521113         1.134839        -1.192010
 H         1.702819         1.289643         0.766988
 H         2.115277        -0.399625        -0.188509
 H        -1.158928         1.911261        -0.369499
 H        -3.245551         0.109266        -0.128894
 H        -1.464537        -0.243809         2.291961
 H        -2.062468        -1.917707         1.670538
 H        -0.052942        -3.141465         0.427168
 H        -1.113623        -0.676686        -1.745875
 H        -2.527396        -2.769571        -1.563172
