19
Iteration:  4435
 C         1.551589         0.480975        -0.086786
 C         0.189636         0.054876        -0.246518
 C        -0.695943         0.309381        -1.202359
 C        -1.958308        -0.533079        -0.849155
 C        -2.037036        -0.298052         0.685094
 C        -0.532783        -0.961831         0.575660
 O         0.137199        -1.291164         1.794155
 C        -1.214440        -1.825064        -0.513649
 O        -1.982298        -2.914468        -0.102269
 H         1.838165         0.996583        -0.983635
 H         1.870841         1.217934         0.699708
 H         2.201434        -0.428881         0.102821
 H        -0.746682         1.169297        -1.918734
 H        -2.820152        -0.440410        -1.545764
 H        -2.109591         0.679669         1.054819
 H        -2.830685        -0.929650         1.201806
 H         0.841378        -1.849251         1.598611
 H        -0.404412        -2.005032        -1.301528
 H        -2.915903        -2.705900        -0.166717
