19
Iteration:  2574charge 0 multiplicity 1
 C         1.446743         0.634813        -0.027008
 C         0.027723         0.135827         0.055796
 C        -1.136454         0.808517        -0.164644
 C        -2.158890        -0.258589         0.075268
 C        -1.602448        -0.851139         1.453402
 C        -0.435033        -1.213792         0.498845
 O         0.683803        -2.152864         0.815810
 C        -1.411181        -1.349689        -0.852256
 O        -2.059897        -2.582373        -1.175612
 H         1.443130         1.337723        -0.943647
 H         1.755215         1.137201         0.923926
 H         2.021862        -0.279613        -0.152118
 H        -1.281840         1.814543        -0.304328
 H        -3.240314        -0.031403        -0.088834
 H        -1.634543        -0.056532         2.167169
 H        -2.173421        -1.777629         1.725022
 H         0.705984        -2.844849         0.056908
 H        -1.036443        -0.806465        -1.803842
 H        -2.260879        -2.469939        -2.172409
