19
Iteration:   991
 C         1.515180         0.727344         0.142899
 C         0.107165         0.188066        -0.143185
 C        -1.027174         0.785029        -0.566553
 C        -2.130216        -0.179708        -0.254955
 C        -1.701157        -0.727975         1.246605
 C        -0.458575        -1.157902         0.421407
 O         0.458002        -2.120259         0.844170
 C        -1.396181        -1.510026        -0.777876
 O        -2.051394        -2.793069        -0.654119
 H         1.586833         0.891547         1.244237
 H         2.157244        -0.065234        -0.046616
 H         1.721189         1.537138        -0.568271
 H        -1.101521         1.850683        -0.701686
 H        -3.091012         0.276115        -0.412652
 H        -1.547195        -0.028223         2.083285
 H        -2.352136        -1.593833         1.577964
 H         0.486932        -2.056427         1.814027
 H        -0.987660        -1.239144        -1.740867
 H        -1.252652        -3.330890        -0.998351
