19
Iteration:  2703
 C         1.434254         0.778994         0.274735
 C         0.027742         0.159343        -0.044717
 C        -1.121763         0.764997        -0.259025
 C        -2.101594        -0.330441         0.004204
 C        -1.488816        -0.915703         1.239531
 C        -0.304604        -1.200421         0.295277
 O         0.515342        -2.215038         0.704855
 C        -1.404627        -1.378009        -0.861148
 O        -2.223891        -2.494281        -0.924381
 H         1.420915         1.226985         1.283444
 H         2.186425        -0.048066         0.343578
 H         1.755517         1.419158        -0.486875
 H        -1.346011         1.654024        -0.747030
 H        -3.198616        -0.104800         0.080503
 H        -1.290422        -0.239423         2.024378
 H        -2.147249        -1.784546         1.617766
 H         1.403500        -1.905935         0.751893
 H        -1.170302        -1.085401        -1.860352
 H        -1.733368        -3.196394        -1.172342
