19
Iteration:  2813charge 0 multiplicity 1
 C         1.516612         0.714881         0.018363
 C         0.106998         0.192129         0.105762
 C        -1.069336         0.828203        -0.260355
 C        -2.149387        -0.222694        -0.018807
 C        -1.640333        -0.858325         1.351537
 C        -0.513269        -1.205244         0.374537
 O         0.333393        -2.219416         0.793062
 C        -1.483882        -1.329627        -0.837150
 O        -1.838182        -2.699230        -1.053228
 H         2.190183         0.167162        -0.669833
 H         1.567240         1.716138        -0.362161
 H         1.987513         0.632481         0.943192
 H        -1.302905         1.952281        -0.636741
 H        -3.167400         0.089014        -0.240365
 H        -1.339984        -0.202478         2.154323
 H        -2.103532        -1.850516         1.602308
 H         1.259914        -1.985600         0.667857
 H        -1.240031        -0.916212        -1.765738
 H        -1.949645        -3.210513        -0.226001
