19
Iteration:  2057
 C         1.490747         0.548472        -0.076272
 C         0.027413         0.238983         0.029093
 C        -1.121099         0.956350        -0.263321
 C        -2.115423        -0.211431        -0.218420
 C        -1.744453        -0.917113         1.210116
 C        -0.424263        -1.131898         0.399759
 O         0.554616        -2.100767         0.828932
 C        -1.320375        -1.389302        -0.816705
 O        -1.979302        -2.676572        -0.669485
 H         1.731165         1.534414         0.275566
 H         1.922048        -0.304878         0.531240
 H         1.723150         0.427935        -1.160319
 H        -1.132076         1.990421        -0.332573
 H        -3.184073        -0.050877        -0.456850
 H        -1.591476        -0.084406         1.957086
 H        -2.399934        -1.801818         1.352350
 H        -0.076595        -2.699965         1.280330
 H        -0.958722        -1.223853        -1.842457
 H        -1.703242        -3.337207        -1.201979
