19
Iteration:   378charge 0 multiplicity 1
 C         1.528604         0.636567        -0.096007
 C         0.029527         0.241891         0.069788
 C        -1.063667         0.950359        -0.048638
 C        -2.162755        -0.146805        -0.056437
 C        -1.742462        -0.997648         1.217218
 C        -0.452416        -1.154740         0.374902
 O         0.464878        -2.256443         0.515180
 C        -1.353239        -1.338652        -0.786676
 O        -1.956674        -2.656751        -0.765693
 H         2.137576         0.084503         0.694806
 H         1.835916         0.463697        -1.095794
 H         1.487482         1.694053         0.137315
 H        -1.218468         2.080416        -0.077201
 H        -3.198512         0.009737        -0.348856
 H        -1.685484        -0.529521         2.206774
 H        -2.461021        -1.797919         1.254397
 H         0.784559        -2.190769         1.487081
 H        -0.980226        -1.064515        -1.764235
 H        -1.199600        -3.298252        -0.468836
