19
Iteration:  3205charge 0 multiplicity 1
 C         1.625971         0.696683        -0.013481
 C         0.118249         0.214276         0.017200
 C        -1.037806         0.724567        -0.447941
 C        -2.131654        -0.235717        -0.249364
 C        -1.938176        -0.785384         1.143090
 C        -0.442684        -1.159012         0.461549
 O         0.609119        -1.949178         0.954993
 C        -1.338699        -1.535389        -0.822729
 O        -2.098551        -2.741740        -0.630694
 H         1.919796         1.282497         0.867188
 H         2.254442        -0.192037        -0.091367
 H         1.973774         1.335185        -0.805448
 H        -1.289495         1.747914        -0.848318
 H        -3.163268        -0.062497        -0.655405
 H        -1.869255        -0.006690         1.953662
 H        -2.496051        -1.717768         1.330145
 H         0.083505        -2.649401         1.441751
 H        -0.795426        -1.415460        -1.832462
 H        -2.006648        -3.169938        -1.477751
