19
Iteration:  1962
 C         1.597596         0.809383         0.170167
 C         0.092273         0.235480        -0.059760
 C        -1.078493         0.736910        -0.460686
 C        -2.120022        -0.306216        -0.264012
 C        -1.734496        -0.894053         1.206183
 C        -0.316835        -1.201183         0.353824
 O         0.611513        -2.072082         0.843610
 C        -1.379452        -1.473400        -0.855227
 O        -2.243837        -2.605035        -0.558744
 H         2.183481         0.218325         0.874421
 H         2.190809         0.639041        -0.807195
 H         1.615398         1.836184         0.560888
 H        -1.306129         1.692463        -0.884810
 H        -3.173677        -0.135330        -0.480254
 H        -1.559253        -0.085784         1.959530
 H        -2.392612        -1.734918         1.428476
 H         0.100522        -2.849201         1.283670
 H        -1.039120        -1.371227        -1.954905
 H        -2.187047        -3.120674        -1.497687
