19
Iteration:  3526charge 0 multiplicity 1
 C         1.523409         0.728465         0.034971
 C         0.144543         0.270092        -0.092342
 C        -0.934140         0.714564        -0.779720
 C        -2.099262        -0.283222        -0.496475
 C        -1.838090        -0.570352         0.994950
 C        -0.484100        -1.096848         0.509447
 O         0.304648        -2.082534         1.225329
 C        -1.257218        -1.625332        -0.751507
 O        -1.971021        -2.862875        -0.427873
 H         2.116172         0.722772        -0.884269
 H         1.606657         1.724049         0.423172
 H         2.153093         0.118394         0.694502
 H        -1.026394         1.666349        -1.226299
 H        -3.073193        -0.239521        -0.950934
 H        -1.856517         0.304661         1.608372
 H        -2.430736        -1.432180         1.490513
 H         0.953112        -1.684375         1.893962
 H        -0.661939        -1.657654        -1.615607
 H        -2.742731        -2.920932        -1.090145
