19
Iteration:  1595charge 0 multiplicity 1
 C         1.518028         0.519501        -0.235947
 C         0.097745         0.239591         0.008392
 C        -1.026851         0.849851        -0.461007
 C        -2.057574        -0.203683        -0.351707
 C        -1.876005        -0.756110         1.094404
 C        -0.474464        -1.119589         0.520441
 O         0.410482        -2.031857         1.160505
 C        -1.254424        -1.462241        -0.716691
 O        -1.993182        -2.750818        -0.669637
 H         2.090684        -0.413628        -0.458899
 H         1.680581         1.315985        -0.908043
 H         2.074686         0.698000         0.731600
 H        -1.023136         1.721823        -1.040910
 H        -3.081369        -0.072963        -0.722955
 H        -2.244348         0.026353         1.855881
 H        -2.332992        -1.716827         1.309126
 H         0.316522        -1.871448         2.073775
 H        -0.832216        -1.376677        -1.760408
 H        -1.405630        -3.457513        -1.095252
