19
Iteration:  1130
 C         1.538057         0.507075        -0.174928
 C        -0.003418         0.205125         0.046781
 C        -1.030951         0.792134        -0.493462
 C        -2.086023        -0.270000        -0.241283
 C        -1.818078        -0.707178         1.265141
 C        -0.449058        -1.123669         0.548416
 O         0.499936        -1.971489         1.088637
 C        -1.350875        -1.439023        -0.823412
 O        -1.987186        -2.745773        -0.803202
 H         1.793609        -0.102438        -1.036572
 H         1.810773         1.570305        -0.588119
 H         2.188639         0.357179         0.661250
 H        -1.142946         1.693124        -1.102778
 H        -3.076641         0.097752        -0.506929
 H        -1.740678         0.057109         2.047184
 H        -2.268313        -1.596244         1.729866
 H         0.214945        -2.409182         1.964314
 H        -1.094037        -1.228906        -1.869655
 H        -1.446694        -3.398269        -1.263542
