19
Iteration:  3540
 C         1.560052         0.683775         0.038995
 C         0.054142         0.189292        -0.055382
 C        -0.997846         0.692534        -0.741077
 C        -1.985331        -0.374785        -0.504675
 C        -1.865968        -0.561258         1.061470
 C        -0.447077        -1.100571         0.526123
 O         0.317703        -1.995583         1.179628
 C        -1.207418        -1.639576        -0.779928
 O        -1.992611        -2.755367        -0.436160
 H         1.768397         1.121543        -0.958316
 H         1.642933         1.500114         0.830633
 H         2.204050        -0.174372         0.413689
 H        -1.040042         1.250861        -1.752705
 H        -3.044630        -0.090299        -0.845983
 H        -1.795037         0.358804         1.695709
 H        -2.681265        -1.239976         1.386984
 H         0.657024        -1.486104         1.878379
 H        -0.679356        -1.789855        -1.803757
 H        -2.519355        -2.981216        -1.148238
