19
Iteration:  4530charge 0 multiplicity 1
 C         1.616464         0.537484        -0.015291
 C         0.191055         0.193048        -0.329648
 C        -0.685482         0.352978        -1.395542
 C        -1.893825        -0.585241        -0.917294
 C        -2.003959        -0.167195         0.612738
 C        -0.612665        -0.888875         0.611715
 O        -0.097860        -1.553534         1.700539
 C        -1.166605        -1.894677        -0.477982
 O        -1.968838        -2.891164         0.113515
 H         1.926483         0.257232         1.010522
 H         2.276726        -0.033718        -0.676747
 H         2.026136         1.507188        -0.333647
 H        -0.764517         1.273637        -2.067788
 H        -2.869100        -0.399434        -1.497586
 H        -2.005788         0.877105         0.980683
 H        -2.771459        -0.819736         1.203565
 H         0.897883        -1.538771         1.648393
 H        -0.416397        -2.319363        -1.164541
 H        -1.553311        -3.121903         0.959441
