19
Iteration:  3217charge 0 multiplicity 1
 C         1.547997         0.716691        -0.021232
 C         0.146289         0.221030        -0.028281
 C        -1.025754         0.794472        -0.364372
 C        -2.159671        -0.259040        -0.313317
 C        -1.808973        -0.752170         1.092268
 C        -0.412880        -1.166084         0.422797
 O         0.599229        -2.007000         1.033668
 C        -1.375830        -1.542706        -0.812628
 O        -2.123737        -2.744360        -0.657229
 H         1.734266         0.850403         1.071530
 H         2.292897        -0.038473        -0.310079
 H         1.514215         1.611420        -0.598958
 H        -1.115561         1.736767        -0.881794
 H        -3.147805         0.064626        -0.758761
 H        -1.785154         0.091047         1.877462
 H        -2.382152        -1.533727         1.554982
 H         0.258267        -2.808634         1.591438
 H        -0.870525        -1.389117        -1.864973
 H        -1.997305        -3.571354        -1.278902
