19
Iteration:  1025
 C         1.481445         0.758122         0.128044
 C         0.071070         0.259917        -0.039317
 C        -1.050610         0.727071        -0.500026
 C        -2.133589        -0.255306        -0.286261
 C        -1.728579        -0.610424         1.161948
 C        -0.430628        -1.089350         0.462091
 O         0.334745        -2.328636         0.715839
 C        -1.309860        -1.462522        -0.767122
 O        -1.965748        -2.725209        -0.570408
 H         2.139024         0.350508         0.977758
 H         2.002300         0.510042        -0.712102
 H         1.730465         1.842009         0.302980
 H        -1.126755         1.653947        -1.074780
 H        -3.117832         0.121378        -0.607857
 H        -1.624341         0.266338         1.763966
 H        -2.370512        -1.461704         1.543219
 H         0.908350        -2.253503         1.545496
 H        -0.809366        -1.504252        -1.744089
 H        -1.397616        -3.467692        -0.119790
