19
Iteration:  2162charge 0 multiplicity 1
 C         1.541189         0.671801         0.070433
 C         0.066675         0.222432         0.009392
 C        -1.053190         0.944758        -0.329338
 C        -2.160307        -0.123995        -0.093109
 C        -1.748824        -0.878957         1.152795
 C        -0.467479        -1.148208         0.350869
 O         0.583515        -2.143759         0.803907
 C        -1.439571        -1.407805        -0.867390
 O        -1.958893        -2.807258        -0.694267
 H         2.019088         0.640121        -0.976329
 H         1.697056         1.653066         0.374162
 H         2.104429        -0.038277         0.668340
 H        -1.107164         1.960922        -0.447141
 H        -3.213162         0.212015        -0.151442
 H        -1.501384        -0.562794         2.114874
 H        -2.220692        -1.840770         1.231721
 H         0.232099        -2.896709         1.216614
 H        -1.094579        -1.269184        -1.920410
 H        -2.724010        -2.867748        -1.267758
