19
Iteration:  2871charge 0 multiplicity 1
 C         1.501996         0.660274        -0.010080
 C         0.039205         0.214376         0.209952
 C        -1.095610         0.735101        -0.254785
 C        -2.111880        -0.288738        -0.172953
 C        -1.703968        -0.962456         1.175102
 C        -0.375899        -1.152810         0.469678
 O         0.554334        -2.059081         0.913098
 C        -1.271032        -1.454735        -0.914881
 O        -2.166311        -2.552250        -1.013719
 H         1.359741         1.243928        -0.906970
 H         2.052082         1.044334         0.803204
 H         1.919047        -0.254722        -0.343342
 H        -1.335345         1.714976        -0.255087
 H        -3.149576        -0.122246        -0.457133
 H        -1.687458        -0.304964         2.107631
 H        -2.032312        -1.885579         1.542044
 H         1.402850        -1.645787         1.223007
 H        -0.896207        -1.154098        -1.942954
 H        -2.596842        -2.733380        -0.073280
