19
Iteration:  3273charge 0 multiplicity 1
 C         1.584729         0.688361         0.059327
 C         0.123263         0.183709        -0.077185
 C        -1.024267         0.793676        -0.570413
 C        -2.109483        -0.282533        -0.243329
 C        -1.813493        -0.648712         1.219510
 C        -0.439168        -1.077462         0.499046
 O         0.530672        -2.058658         0.932295
 C        -1.394399        -1.494653        -0.777062
 O        -2.081463        -2.820175        -0.666059
 H         2.261364        -0.066865         0.538404
 H         1.878443         1.206887        -0.840238
 H         1.491032         1.468127         0.820553
 H        -1.241242         1.645064        -1.134088
 H        -3.125450        -0.208048        -0.691839
 H        -1.736126         0.332175         1.808555
 H        -2.512935        -1.409792         1.458093
 H         0.202930        -2.778925         1.394137
 H        -0.960161        -1.382545        -1.851316
 H        -1.530232        -3.559427        -0.955631
