19
Iteration:   222charge 0 multiplicity 1
 C         1.439730         0.597618        -0.041266
 C         0.093145         0.268092         0.147469
 C        -1.138179         0.923745        -0.121413
 C        -2.252414        -0.175015         0.083420
 C        -1.615031        -0.943339         1.332693
 C        -0.411051        -1.142160         0.364207
 O         0.511890        -2.204465         0.638985
 C        -1.428887        -1.322081        -0.811880
 O        -1.904467        -2.703680        -0.910570
 H         1.831399         1.527847        -0.505040
 H         1.977194         0.637991         0.891156
 H         1.911617        -0.196001        -0.546243
 H        -1.255734         1.855296        -0.764912
 H        -3.341937         0.060030        -0.031357
 H        -1.393752        -0.361148         2.204157
 H        -2.024770        -1.896989         1.580172
 H         0.581930        -2.619725        -0.208666
 H        -1.022454        -1.055918        -1.773395
 H        -2.188957        -2.769412        -1.811502
