19
Iteration:   788
 C         1.445044         0.686901         0.120116
 C         0.100994         0.136612        -0.093483
 C        -1.076813         0.777557        -0.461443
 C        -2.123270        -0.273886        -0.062800
 C        -1.565464        -0.850578         1.272949
 C        -0.345767        -1.243714         0.381663
 O         0.676368        -2.005375         0.810377
 C        -1.415616        -1.496689        -0.812409
 O        -2.289900        -2.570169        -0.755080
 H         2.251822         0.017408         0.323344
 H         1.722323         1.594474        -0.648930
 H         1.341193         1.349459         0.999563
 H        -1.300108         1.662468        -1.081131
 H        -3.177032        -0.111261        -0.184791
 H        -1.202340        -0.155676         2.052345
 H        -2.127822        -1.769868         1.724645
 H         0.390803        -2.711344         1.392195
 H        -1.012719        -1.304881        -1.825226
 H        -2.257973        -3.059920        -1.653779
