19
Iteration:  2329
 C         1.538268         0.532013        -0.104374
 C        -0.014335         0.276072         0.037695
 C        -1.186440         0.914676        -0.197268
 C        -2.194103        -0.122364         0.111101
 C        -1.670084        -0.969371         1.301594
 C        -0.422383        -1.201291         0.375518
 O         0.571367        -2.117072         0.826744
 C        -1.391740        -1.287191        -0.842892
 O        -1.880840        -2.688927        -0.933059
 H         1.807610         1.046557         0.785481
 H         1.881754        -0.493262        -0.012683
 H         1.899183         1.065576        -1.000131
 H        -1.287314         1.849235        -0.751773
 H        -3.247287        -0.031188        -0.156458
 H        -1.514279        -0.440917         2.223649
 H        -2.234911        -1.822121         1.515539
 H         0.155282        -2.958770         0.752050
 H        -1.008339        -1.010754        -1.857022
 H        -2.361090        -2.877401        -1.848193
