19
Iteration:  1912
 C         1.516894         0.567532        -0.013302
 C         0.060394         0.211166         0.035074
 C        -1.084808         0.861468        -0.440169
 C        -2.181276        -0.218339        -0.176269
 C        -1.761658        -0.651899         1.220714
 C        -0.471291        -1.140022         0.440718
 O         0.497728        -2.092676         0.887907
 C        -1.379887        -1.490458        -0.824020
 O        -1.871738        -2.750920        -0.671060
 H         2.080649        -0.443503        -0.172413
 H         1.823629         1.207219        -0.786765
 H         1.772870         0.932020         1.011189
 H        -1.111896         1.834479        -0.907701
 H        -3.182398         0.071057        -0.459897
 H        -1.587069         0.156213         1.935163
 H        -2.228185        -1.525248         1.744175
 H         0.221212        -2.986089         0.672942
 H        -1.009732        -1.152222        -1.779711
 H        -2.130985        -3.133292        -1.509463
