19
Iteration:   161
 C         1.408978         0.648047        -0.202476
 C         0.105611         0.284877         0.301303
 C        -1.105520         0.935275        -0.010550
 C        -2.135828        -0.212715         0.015861
 C        -1.689068        -1.026384         1.287588
 C        -0.445283        -1.171283         0.430636
 O         0.531221        -2.234364         0.637335
 C        -1.350154        -1.321600        -0.895914
 O        -1.894165        -2.623446        -0.954477
 H         1.296754         0.850810        -1.303080
 H         1.749017         1.530433         0.452660
 H         2.008099        -0.341725        -0.028897
 H        -1.272850         1.964073        -0.284318
 H        -3.192739         0.064742        -0.007569
 H        -1.490611        -0.357603         2.162005
 H        -2.353220        -1.918073         1.586901
 H         0.001619        -2.917039         0.988161
 H        -0.831370        -0.993807        -1.846818
 H        -2.519094        -2.657027        -1.642395
