19
Iteration:  3819
 C         1.616177         0.627345        -0.111866
 C         0.207784         0.109472        -0.177199
 C        -0.886437         0.500043        -0.949737
 C        -2.054109        -0.334248        -0.533360
 C        -1.951710        -0.295491         0.988963
 C        -0.509756        -1.014751         0.576518
 O         0.107373        -1.777804         1.514021
 C        -1.316494        -1.701112        -0.662781
 O        -1.905407        -2.951916        -0.481241
 H         1.908434         1.031717         0.899549
 H         2.433204        -0.157118        -0.271436
 H         1.822352         1.469051        -0.801661
 H        -0.717314         1.292710        -1.682079
 H        -2.998979        -0.142276        -1.092785
 H        -1.791770         0.651877         1.389591
 H        -2.706982        -0.954611         1.520553
 H         1.018509        -2.045394         1.219446
 H        -0.664718        -1.769786        -1.620059
 H        -1.774846        -3.265667         0.487976
