19
Iteration:  3776charge 0 multiplicity 1
 C         1.539061         0.699751        -0.068645
 C         0.178893         0.163950        -0.141514
 C        -0.870980         0.601672        -0.927803
 C        -2.047359        -0.359248        -0.606222
 C        -1.863633        -0.444461         0.942290
 C        -0.465292        -1.110859         0.485374
 O         0.203771        -1.817615         1.503814
 C        -1.202983        -1.723685        -0.702427
 O        -1.993013        -2.819918        -0.348954
 H         1.625898         1.811138         0.001714
 H         1.789758         0.353537         0.983438
 H         2.232115         0.259460        -0.824100
 H        -0.947355         1.191481        -1.863455
 H        -3.055727        -0.218630        -1.078810
 H        -1.998431         0.477927         1.411657
 H        -2.483186        -1.263300         1.435542
 H         0.469757        -2.757910         1.119003
 H        -0.673573        -1.971967        -1.718185
 H        -2.504338        -2.470258         0.425719
