19
Iteration:  1681
 C         1.504110         0.688735         0.015739
 C         0.142666         0.191792         0.001237
 C        -0.977667         0.759324        -0.584976
 C        -2.064788        -0.294827        -0.287487
 C        -1.730332        -0.590267         1.245704
 C        -0.479284        -1.104933         0.542827
 O         0.386042        -2.128670         1.033134
 C        -1.417544        -1.606987        -0.803665
 O        -2.075427        -2.750778        -0.799420
 H         1.915039         0.731552         1.144537
 H         2.111190         0.053397        -0.582349
 H         1.505801         1.683071        -0.473743
 H        -1.120368         1.678413        -1.211094
 H        -3.107674         0.056379        -0.458412
 H        -1.597645         0.381047         1.881093
 H        -2.301188        -1.387116         1.744066
 H         1.171119        -1.768086         1.501541
 H        -0.782129        -1.366634        -1.705351
 H        -1.462120        -3.381051        -1.009601
