19
Iteration:  3508
 C         1.537174         0.773797         0.052170
 C         0.155999         0.139666        -0.195191
 C        -0.930476         0.769050        -0.728158
 C        -2.026507        -0.214285        -0.483536
 C        -1.878425        -0.554833         1.096820
 C        -0.467426        -1.132296         0.458026
 O         0.250569        -2.047097         1.195577
 C        -1.311135        -1.640694        -0.706866
 O        -1.900849        -2.934723        -0.455526
 H         2.248585         0.159321        -0.543048
 H         1.354060         1.827423        -0.273373
 H         1.844940         0.603133         1.140315
 H        -0.962285         1.824994        -1.160022
 H        -3.008926         0.150556        -0.935952
 H        -1.858660         0.235514         1.885167
 H        -2.563584        -1.379059         1.251581
 H         0.933917        -1.542395         1.745545
 H        -0.736641        -1.765886        -1.740279
 H        -2.756069        -2.970274        -0.996555
