19
Iteration:  1208charge 0 multiplicity 1
 C         1.524460         0.671394         0.017234
 C         0.112832         0.208285        -0.086469
 C        -1.020249         0.768415        -0.608561
 C        -2.098178        -0.193855        -0.243463
 C        -1.747604        -0.589177         1.255522
 C        -0.442206        -1.100697         0.480997
 O         0.413159        -2.047204         1.042556
 C        -1.387254        -1.542045        -0.760005
 O        -1.961204        -2.893472        -0.699189
 H         2.049987         0.812919        -0.931664
 H         1.606527         1.655157         0.631888
 H         2.013513        -0.068011         0.670322
 H        -1.114696         1.457064        -1.424436
 H        -3.148253         0.042586        -0.458679
 H        -1.472168         0.154563         1.988902
 H        -2.333842        -1.518274         1.561994
 H         0.622467        -2.548218         0.201222
 H        -0.846555        -1.580413        -1.711133
 H        -2.867132        -2.893241        -0.555032
