19
Iteration:  3498charge 0 multiplicity 1
 C         1.487784         0.694579         0.048216
 C         0.182272         0.160192        -0.159051
 C        -0.891213         0.718672        -0.684173
 C        -2.059932        -0.220413        -0.405766
 C        -1.844987        -0.560594         1.031985
 C        -0.545635        -1.117825         0.484624
 O         0.274176        -2.027204         1.178602
 C        -1.296884        -1.591616        -0.812317
 O        -1.910669        -2.931306        -0.440647
 H         2.427681         0.244593        -0.293796
 H         1.586651         1.690555        -0.515459
 H         1.682816         1.126190         1.064885
 H        -1.007325         1.653597        -1.335697
 H        -3.124197        -0.091093        -0.779349
 H        -1.797230         0.297586         1.760759
 H        -2.565835        -1.242053         1.405798
 H         0.900416        -1.573561         1.729018
 H        -0.577016        -1.561179        -1.743589
 H        -2.679908        -3.087229        -1.008087
