19
Iteration:  2249charge 0 multiplicity 1
 C         1.478854         0.755880         0.143907
 C         0.079658         0.184823        -0.101242
 C        -1.057415         0.791668        -0.391809
 C        -2.123878        -0.223070        -0.061693
 C        -1.640310        -0.967442         1.332581
 C        -0.389929        -1.211983         0.327090
 O         0.559139        -2.101920         0.764738
 C        -1.461710        -1.409491        -0.868011
 O        -2.045582        -2.623829        -0.745344
 H         2.188953         0.090107         0.734995
 H         1.934319         0.973806        -0.783757
 H         1.319232         1.687707         0.664496
 H        -1.106720         1.858563        -0.203446
 H        -3.192114         0.101684        -0.185530
 H        -1.269858        -0.344595         2.129553
 H        -2.048868        -1.908134         1.717693
 H         0.027738        -2.891443         0.719268
 H        -1.160115        -1.109087        -1.885903
 H        -2.486936        -2.758216        -1.670951
