19
Iteration:  2998charge 0 multiplicity 1
 C         1.519010         0.724188         0.083712
 C         0.076629         0.279413         0.150082
 C        -1.078009         0.829674        -0.373576
 C        -2.135567        -0.246766        -0.208652
 C        -1.736211        -0.791619         1.156797
 C        -0.380715        -1.242230         0.401304
 O         0.558698        -2.165375         0.831495
 C        -1.347493        -1.477416        -0.890688
 O        -2.127671        -2.682716        -0.744910
 H         2.150329        -0.015989         0.684436
 H         1.850573         0.686649        -1.029441
 H         1.575504         1.809116         0.365678
 H        -1.310648         1.789977        -0.652232
 H        -3.123608        -0.000793        -0.499444
 H        -1.645698         0.004000         1.865761
 H        -2.421280        -1.601830         1.505393
 H         0.735289        -2.112739         1.735651
 H        -0.986443        -1.319921        -1.931745
 H        -1.694116        -3.441411        -1.137250
