19
Iteration:  1765charge 0 multiplicity 1
 C         1.466496         0.640677         0.185362
 C         0.149011         0.160760        -0.119325
 C        -1.013828         0.878738        -0.563810
 C        -2.136155        -0.227284        -0.242378
 C        -1.749433        -0.559660         1.193668
 C        -0.434324        -1.115726         0.451165
 O         0.580759        -2.075394         0.808386
 C        -1.355134        -1.560754        -0.784147
 O        -2.178595        -2.870626        -0.683149
 H         1.524920         1.688117         0.321792
 H         1.793001         0.277667         1.261304
 H         2.263919         0.366326        -0.509613
 H        -1.137770         1.923036        -0.944376
 H        -3.188673        -0.123572        -0.623243
 H        -1.414179         0.169815         1.950323
 H        -2.340092        -1.225465         1.757206
 H         0.229637        -2.514068         1.623690
 H        -0.852590        -1.398942        -1.750421
 H        -1.397224        -3.497602        -0.428707
