19
Iteration:   935
 C         1.493493         0.612813        -0.061117
 C         0.095306         0.215425         0.086594
 C        -1.073383         0.797653        -0.438979
 C        -2.060255        -0.361436        -0.231381
 C        -1.793613        -0.868249         1.161270
 C        -0.369460        -1.120343         0.543595
 O         0.694042        -1.906255         1.032657
 C        -1.279250        -1.534920        -0.779870
 O        -2.309150        -2.589766        -0.847447
 H         1.672434         1.732870        -0.127712
 H         2.116078         0.059773         0.646343
 H         1.732018         0.426274        -1.139192
 H        -1.057829         1.775575        -1.005517
 H        -3.102673        -0.147984        -0.493506
 H        -1.929082        -0.252276         2.122591
 H        -2.277542        -1.848123         1.320026
 H         0.236468        -2.748598         1.356431
 H        -0.792257        -1.343657        -1.748895
 H        -1.869745        -3.461783        -1.126119
