19
Iteration:  1164
 C         1.589593         0.593213        -0.239821
 C         0.095462         0.221268        -0.050637
 C        -1.074826         0.923665        -0.378283
 C        -2.121323        -0.175122        -0.283329
 C        -1.850831        -0.783674         1.126201
 C        -0.452375        -1.158339         0.498460
 O         0.391095        -2.033806         1.145314
 C        -1.232110        -1.513828        -0.781761
 O        -1.925353        -2.767192        -0.562707
 H         1.736916         0.251069        -1.269592
 H         1.546024         1.680076        -0.005678
 H         2.120002        -0.065169         0.413180
 H        -1.043543         1.857240        -0.873131
 H        -3.083969         0.104708        -0.734678
 H        -1.916229        -0.053028         1.922121
 H        -2.409576        -1.774704         1.188847
 H         0.181948        -2.912046         0.680088
 H        -0.840854        -1.337143        -1.789282
 H        -2.140187        -3.082056        -1.396755
