19
Iteration:  4843charge 0 multiplicity 1
 C         1.620074         0.344088        -0.077455
 C         0.253673        -0.058969        -0.403765
 C        -0.646860         0.143047        -1.446947
 C        -1.866958        -0.516829        -0.956185
 C        -2.073960        -0.134121         0.468072
 C        -0.628337        -0.742093         0.662400
 O        -0.214706        -1.143366         1.892682
 C        -1.141049        -1.884299        -0.428178
 O        -1.859355        -2.873610         0.236440
 H         2.310790        -0.121131        -0.786776
 H         1.835414         1.405700         0.044654
 H         1.774218        -0.147809         0.889696
 H        -0.577786         0.486811        -2.406237
 H        -2.796798        -0.557398        -1.581708
 H        -2.045998         1.024016         0.573170
 H        -2.846601        -0.753986         0.980175
 H         0.537156        -1.703824         1.824347
 H        -0.360912        -2.332556        -1.031740
 H        -1.819134        -3.679900        -0.218148
