19
Iteration:  2065
 C         1.489711         0.535238        -0.094088
 C         0.073713         0.280357         0.026663
 C        -1.058684         0.884714        -0.201582
 C        -2.189859        -0.206341        -0.171625
 C        -1.790119        -0.888995         1.177678
 C        -0.394715        -1.140778         0.365314
 O         0.538188        -2.060962         0.882382
 C        -1.331519        -1.439545        -0.842573
 O        -1.968993        -2.669858        -0.696505
 H         1.885932         1.600586         0.037181
 H         2.191182        -0.034444         0.446931
 H         1.774083         0.269440        -1.135271
 H        -1.331722         1.952855        -0.212652
 H        -3.195116        -0.121067        -0.659759
 H        -1.636164        -0.232302         2.027384
 H        -2.374221        -1.750173         1.466762
 H         0.031581        -2.766882         1.272026
 H        -1.172665        -1.109963        -1.871594
 H        -1.816791        -3.269573        -1.334956
