19
Iteration:  4595charge 0 multiplicity 1
 C         1.703963         0.475857        -0.115731
 C         0.213872         0.045984        -0.309670
 C        -0.723003         0.319163        -1.260049
 C        -1.945786        -0.564783        -0.895427
 C        -1.908264        -0.158138         0.604416
 C        -0.599434        -0.814220         0.636251
 O        -0.037124        -1.272685         1.885426
 C        -1.183639        -1.942627        -0.434346
 O        -2.081770        -3.020522        -0.132415
 H         2.426349        -0.265402        -0.509461
 H         1.850357         1.444378        -0.575231
 H         1.853670         0.624264         0.934296
 H        -0.637308         0.655546        -2.332190
 H        -2.962395        -0.432655        -1.397355
 H        -2.080526         0.898303         0.740969
 H        -2.688654        -0.670424         1.292828
 H         0.751100        -0.832232         2.005096
 H        -0.549625        -2.278511        -1.201001
 H        -1.731037        -3.645903         0.443815
