19
Iteration:  1017
 C         1.498929         0.747098         0.149481
 C         0.116327         0.242090         0.042508
 C        -1.075876         0.771324        -0.575098
 C        -2.156884        -0.257018        -0.250784
 C        -1.714890        -0.589066         1.182906
 C        -0.388670        -1.107866         0.449439
 O         0.320065        -2.284115         0.709763
 C        -1.312695        -1.516009        -0.788356
 O        -1.986416        -2.759280        -0.578219
 H         1.735042         0.351816         1.134997
 H         2.152550         0.388654        -0.736221
 H         1.514999         1.835245        -0.003573
 H        -0.941083         1.556696        -1.332503
 H        -3.201303         0.154661        -0.310470
 H        -1.635516         0.266474         1.833067
 H        -2.263805        -1.384323         1.633017
 H         0.780982        -2.278111         1.580107
 H        -0.934156        -1.229367        -1.798172
 H        -1.111170        -3.330200        -0.509608
