19
Iteration:  1076
 C         1.572834         0.659763        -0.004188
 C         0.096226         0.209675         0.063541
 C        -1.060571         0.783912        -0.504640
 C        -2.131631        -0.259602        -0.261556
 C        -1.713171        -0.761760         1.161066
 C        -0.413321        -1.179595         0.412998
 O         0.538929        -2.011120         1.027908
 C        -1.416286        -1.522176        -0.826622
 O        -2.159766        -2.755622        -0.800557
 H         2.331000        -0.110433         0.196559
 H         1.950653         1.170999        -0.964060
 H         1.787854         1.377018         0.783359
 H        -1.000735         1.759848        -1.003741
 H        -3.145879         0.071342        -0.425105
 H        -1.564206        -0.031432         1.992065
 H        -2.321969        -1.650870         1.489176
 H         0.677712        -1.632458         1.952109
 H        -1.098617        -1.340477        -1.869848
 H        -1.858521        -3.379599        -0.160933
