19
Iteration:  3707charge 0 multiplicity 1
 C         1.543983         0.565380         0.075249
 C         0.084956         0.178108        -0.178059
 C        -0.870627         0.540387        -0.988856
 C        -2.074680        -0.346087        -0.489371
 C        -1.866310        -0.414383         1.003745
 C        -0.509709        -1.034077         0.482876
 O         0.348430        -1.777361         1.298310
 C        -1.304938        -1.678402        -0.708115
 O        -1.908668        -2.865104        -0.378914
 H         2.089785        -0.066592        -0.684072
 H         1.618400         1.701249        -0.032753
 H         1.651852         0.087065         1.022623
 H        -1.005490         1.586746        -1.279179
 H        -3.000805        -0.140621        -0.928753
 H        -1.719888         0.468950         1.663998
 H        -2.364152        -1.266098         1.480494
 H         0.014681        -1.933656         2.247032
 H        -0.604939        -1.793808        -1.601956
 H        -2.701449        -2.960534        -0.836122
