19
Iteration:  3311
 C         1.500332         0.541730        -0.000744
 C         0.065260         0.259386        -0.027834
 C        -1.028243         0.857418        -0.516805
 C        -2.093186        -0.269718        -0.339389
 C        -1.824950        -0.728612         1.103074
 C        -0.428170        -1.154487         0.454053
 O         0.530500        -1.949396         1.041881
 C        -1.309227        -1.501949        -0.868412
 O        -1.991920        -2.783920        -0.502685
 H         2.127295        -0.016303        -0.712711
 H         1.692565         1.636313        -0.203881
 H         1.800765         0.437790         1.087653
 H        -1.146660         1.768072        -1.137857
 H        -3.122126        -0.032515        -0.651355
 H        -1.792883        -0.053522         1.921500
 H        -2.441103        -1.583757         1.495268
 H         0.047083        -2.748240         1.305732
 H        -1.029116        -1.422759        -1.932353
 H        -2.286230        -3.158162        -1.312448
