19
Iteration:  4791
 C         1.667501         0.525439        -0.112227
 C         0.277601        -0.009378        -0.352791
 C        -0.559773         0.170425        -1.409168
 C        -1.858279        -0.597151        -0.972671
 C        -2.047401        -0.185160         0.534356
 C        -0.608221        -0.873591         0.642211
 O        -0.101329        -1.191973         1.921987
 C        -1.188211        -1.920032        -0.404704
 O        -2.144286        -2.873166         0.064108
 H         2.517542        -0.203174         0.158372
 H         1.822150         0.986383        -1.088777
 H         1.673784         1.312266         0.691018
 H        -0.317488         0.389093        -2.408672
 H        -2.773793        -0.749943        -1.569163
 H        -2.102882         0.820938         0.793907
 H        -2.740183        -0.877429         1.073137
 H         0.789697        -0.965591         1.924429
 H        -0.379423        -2.421187        -1.059704
 H        -1.741550        -3.427039         0.767438
