19
Iteration:  3363charge 0 multiplicity 1
 C         1.486834         0.629517        -0.096131
 C         0.069730         0.185689         0.019936
 C        -1.001670         0.770796        -0.563858
 C        -2.162889        -0.182513        -0.306404
 C        -1.777819        -0.556055         1.143430
 C        -0.432747        -1.165286         0.537904
 O         0.463378        -1.999206         1.191018
 C        -1.342971        -1.552791        -0.779197
 O        -1.877061        -2.873485        -0.761665
 H         1.356634         1.285155        -0.981242
 H         1.777479         1.088777         0.882125
 H         2.091339        -0.311700        -0.337217
 H        -1.025531         1.558516        -1.410828
 H        -3.061742         0.099258        -0.797517
 H        -1.762479         0.272372         1.820991
 H        -2.503746        -1.301377         1.628162
 H         0.191261        -2.851796         1.078166
 H        -0.799577        -1.412782        -1.820609
 H        -2.655241        -2.883697        -0.267010
