19
Iteration:  3381
 C         1.541362         0.673731        -0.120268
 C         0.125244         0.192473        -0.075000
 C        -0.985885         0.726325        -0.616314
 C        -2.120455        -0.284957        -0.319312
 C        -1.839725        -0.612107         1.191379
 C        -0.510228        -1.089974         0.537210
 O         0.413611        -1.994850         1.192978
 C        -1.333399        -1.568233        -0.752810
 O        -1.908667        -2.813654        -0.789458
 H         1.760958         1.725189        -0.348015
 H         2.149152         0.552932         0.780221
 H         2.197022         0.089302        -0.743631
 H        -1.147840         1.773019        -1.041065
 H        -3.204482        -0.127061        -0.517945
 H        -1.769165         0.281496         1.927051
 H        -2.517437        -1.312389         1.659779
 H        -0.114408        -2.704616         1.395456
 H        -0.761432        -1.529261        -1.630260
 H        -2.150430        -3.127296         0.043746
