19
Iteration:   890
 C         1.488011         0.582231        -0.149981
 C         0.068900         0.230787         0.007875
 C        -1.078755         0.855563        -0.377789
 C        -2.147567        -0.200271        -0.069445
 C        -1.627502        -0.739213         1.266665
 C        -0.416938        -1.105740         0.443274
 O         0.380464        -2.073160         1.009239
 C        -1.392136        -1.451303        -0.794262
 O        -1.866392        -2.803724        -0.828660
 H         1.641401         1.136131        -1.061065
 H         1.685810         1.079424         0.810746
 H         2.025293        -0.372607        -0.187270
 H        -1.263789         1.820695        -0.816024
 H        -3.166077        -0.015958        -0.461634
 H        -1.640375         0.058647         2.119177
 H        -2.242461        -1.578480         1.600943
 H        -0.097091        -2.932960         0.869087
 H        -0.936915        -1.176980        -1.752491
 H        -1.912522        -2.917414        -1.794345
