19
Iteration:   621charge 0 multiplicity 1
 C         1.552745         0.740986        -0.080905
 C         0.081670         0.227101         0.052638
 C        -1.049638         0.809223        -0.199586
 C        -2.135737        -0.298895        -0.145146
 C        -1.707539        -0.997782         1.194125
 C        -0.284791        -1.160254         0.432379
 O         0.631543        -2.095379         0.886029
 C        -1.357781        -1.474086        -0.798469
 O        -2.351421        -2.568501        -0.907789
 H         1.564181         1.670921         0.433497
 H         2.241691        -0.063635         0.266409
 H         1.799726         0.918885        -1.150685
 H        -1.270551         1.856907        -0.403617
 H        -3.189540         0.047019        -0.306158
 H        -1.746924        -0.338645         2.087574
 H        -2.050584        -2.036414         1.238080
 H         0.684186        -1.901219         1.807697
 H        -0.820471        -1.286890        -1.726980
 H        -1.846647        -3.265721        -1.240463
