19
Iteration:   393charge 0 multiplicity 1
 C         1.453731         0.595152        -0.099566
 C         0.010770         0.274156         0.108534
 C        -1.130727         0.915500        -0.070810
 C        -2.146797        -0.232535        -0.076897
 C        -1.693172        -0.900787         1.308659
 C        -0.392564        -1.207033         0.414427
 O         0.532189        -2.242262         0.628698
 C        -1.385072        -1.334533        -0.856719
 O        -1.997256        -2.587811        -0.889991
 H         2.164755        -0.084250         0.210798
 H         1.721110         0.594989        -1.201110
 H         1.883997         1.541522         0.302821
 H        -1.395951         1.905755        -0.243493
 H        -3.191411         0.012377        -0.296322
 H        -1.515200        -0.142582         2.153778
 H        -2.083642        -1.888808         1.690080
 H         0.533493        -2.570566         1.528387
 H        -0.952787        -1.074189        -1.856717
 H        -1.283021        -3.196372        -0.728925
