19
Iteration:  1688charge 0 multiplicity 1
 C         1.528972         0.713638         0.034216
 C         0.098103         0.168718        -0.005450
 C        -0.965430         0.818132        -0.547841
 C        -2.107535        -0.275521        -0.310291
 C        -1.712033        -0.587670         1.228651
 C        -0.411713        -1.125816         0.524095
 O         0.360044        -2.158706         1.000881
 C        -1.362414        -1.556831        -0.838452
 O        -2.110352        -2.823085        -0.735826
 H         1.779347         0.989619         1.018331
 H         2.291534        -0.022179        -0.413360
 H         1.619004         1.653730        -0.489315
 H        -1.068599         1.796883        -0.906956
 H        -3.122271         0.050739        -0.568605
 H        -1.769592         0.360748         1.689170
 H        -2.327401        -1.281708         1.775184
 H         1.099274        -1.644113         1.497607
 H        -0.856081        -1.424606        -1.784868
 H        -1.427981        -3.505978        -0.954318
