19
Iteration:  3407charge 0 multiplicity 1
 C         1.510152         0.608260        -0.068377
 C         0.090624         0.218832        -0.091605
 C        -1.026782         0.795580        -0.595750
 C        -2.102522        -0.241587        -0.369590
 C        -1.779587        -0.699652         1.091188
 C        -0.448059        -1.067664         0.508531
 O         0.437817        -1.953751         1.226387
 C        -1.268777        -1.560852        -0.777830
 O        -2.036682        -2.803689        -0.697214
 H         1.694719         1.545482         0.495869
 H         2.126897        -0.190039         0.422979
 H         2.089922         0.735928        -1.048272
 H        -1.101924         1.554964        -1.350053
 H        -3.126811        -0.138894        -0.655642
 H        -1.810782        -0.069287         1.934953
 H        -2.390026        -1.635079         1.391575
 H        -0.127454        -2.289339         1.855967
 H        -0.659353        -1.580886        -1.789209
 H        -1.774835        -3.308685         0.039984
