19
Iteration:  2976
 C         1.514021         0.751184         0.022993
 C         0.132120         0.181756         0.035004
 C        -0.988074         0.877468        -0.279147
 C        -2.128071        -0.226198        -0.228059
 C        -1.793697        -0.920923         1.206336
 C        -0.462465        -1.157086         0.383025
 O         0.358796        -2.182184         0.762938
 C        -1.355472        -1.394098        -0.824576
 O        -2.006471        -2.683038        -0.683362
 H         2.061846         0.576589         1.031177
 H         2.255252         0.354819        -0.786461
 H         1.347619         1.859137        -0.193695
 H        -1.100044         1.809067        -0.721916
 H        -3.110237        -0.036051        -0.560291
 H        -1.834214        -0.345175         2.101245
 H        -2.239737        -1.957632         1.242798
 H         1.005448        -1.925003         1.522758
 H        -0.792313        -1.373247        -1.752429
 H        -1.223008        -3.332733        -0.824582
