19
Iteration:  2707
 C         1.412439         0.730478         0.279226
 C         0.040060         0.180680        -0.028932
 C        -1.141695         0.782426        -0.253687
 C        -2.103774        -0.339246        -0.006081
 C        -1.473993        -0.930670         1.237868
 C        -0.333654        -1.197560         0.293328
 O         0.527320        -2.198365         0.714182
 C        -1.401161        -1.423962        -0.862814
 O        -2.234506        -2.461364        -0.924321
 H         1.453706         1.193244         1.316214
 H         2.290393         0.044633         0.236171
 H         1.730197         1.472337        -0.509163
 H        -1.329279         1.834195        -0.703988
 H        -3.160425        -0.152557        -0.053820
 H        -1.218198        -0.264096         2.081507
 H        -2.161401        -1.647827         1.567723
 H         1.486195        -1.906318         0.632472
 H        -1.042841        -1.154496        -1.935155
 H        -1.684708        -3.357731        -1.065762
