19
Iteration:  2194
 C         1.494464         0.640902         0.169888
 C         0.079365         0.222041         0.063083
 C        -1.096593         0.807502        -0.331242
 C        -2.142271        -0.271330        -0.171455
 C        -1.741535        -0.777305         1.197930
 C        -0.462326        -1.172931         0.374805
 O         0.561592        -2.094749         0.567425
 C        -1.319905        -1.412170        -0.823412
 O        -2.019034        -2.663690        -0.574698
 H         2.135859        -0.064151        -0.465624
 H         1.670205         1.642577        -0.079746
 H         1.924381         0.571159         1.160064
 H        -1.221595         1.812384        -0.490859
 H        -3.202687        -0.033750        -0.324643
 H        -1.447112        -0.147474         2.004616
 H        -2.170432        -1.715671         1.534606
 H         0.130225        -3.001868         0.522616
 H        -0.866148        -1.255088        -1.834240
 H        -2.324756        -2.974953        -1.544074
