19
Iteration:  4127charge 0 multiplicity 1
 C         1.637721         0.360999        -0.109302
 C         0.136437         0.167188        -0.253930
 C        -0.847500         0.565130        -1.119939
 C        -2.015222        -0.355069        -0.755426
 C        -1.960959        -0.329242         0.822450
 C        -0.562242        -0.918798         0.606024
 O         0.059424        -1.545268         1.730768
 C        -1.263535        -1.740502        -0.614825
 O        -1.808978        -2.973676        -0.152015
 H         2.037580        -0.611842        -0.260684
 H         1.895767         0.991516        -0.955071
 H         1.929342         0.716783         0.889278
 H        -0.565836         0.879332        -2.204578
 H        -2.980883        -0.255728        -1.209314
 H        -2.129256         0.698165         1.330718
 H        -2.655270        -1.086222         1.107955
 H         1.075314        -1.628382         1.625966
 H        -0.651123        -1.943821        -1.473885
 H        -2.426606        -3.308251        -0.848522
