19
Iteration:   659
 C         1.435537         0.528982        -0.153027
 C        -0.029163         0.265158         0.048603
 C        -1.111963         0.820968        -0.251235
 C        -2.185627        -0.176496        -0.002627
 C        -1.648489        -0.814728         1.304530
 C        -0.393035        -1.139656         0.474187
 O         0.533492        -2.236794         0.842895
 C        -1.419513        -1.393003        -0.739664
 O        -1.978889        -2.627762        -1.045833
 H         1.888842         1.261590         0.626703
 H         2.165453        -0.275190         0.014336
 H         1.722688         1.072641        -1.068823
 H        -1.209221         1.828669        -0.778152
 H        -3.240362         0.005048        -0.148629
 H        -1.564495        -0.084654         2.152753
 H        -2.240699        -1.723455         1.727121
 H         1.171724        -1.953107         1.503504
 H        -1.096710        -0.994352        -1.736523
 H        -1.212766        -3.269206        -1.100870
