19
Iteration:  3175charge 0 multiplicity 1
 C         1.434712         0.522049        -0.004925
 C        -0.015159         0.203158         0.039051
 C        -1.090031         0.825218        -0.521130
 C        -2.131960        -0.156659        -0.239334
 C        -1.752576        -0.761833         1.192008
 C        -0.438591        -1.100816         0.467086
 O         0.542168        -1.999097         0.982608
 C        -1.271053        -1.448718        -0.802162
 O        -1.933586        -2.767588        -0.652130
 H         1.697314         1.516187         0.544413
 H         1.917960        -0.271813         0.626386
 H         2.059704         0.488758        -0.926787
 H        -1.202417         1.617272        -1.206312
 H        -3.184792         0.029640        -0.584437
 H        -1.549029        -0.044382         2.056313
 H        -2.303722        -1.637674         1.421488
 H         0.137574        -2.801320         0.757981
 H        -0.783626        -1.578200        -1.857753
 H        -2.305132        -2.898867        -1.551068
