19
Iteration:  3005
 C         1.453492         0.677262         0.085668
 C         0.055562         0.275319         0.121121
 C        -1.079166         0.839226        -0.421438
 C        -2.082245        -0.284252        -0.189242
 C        -1.711048        -0.744262         1.153405
 C        -0.365273        -1.168813         0.403170
 O         0.607970        -2.160667         0.848749
 C        -1.345434        -1.474971        -0.836318
 O        -2.193708        -2.687257        -0.789171
 H         2.118637         0.037316         0.555001
 H         1.864839         0.777804        -0.884333
 H         1.689136         1.607028         0.614868
 H        -1.410366         1.915792        -0.602437
 H        -3.170845        -0.176749        -0.376783
 H        -1.736750        -0.031979         1.981729
 H        -2.307357        -1.642083         1.394685
 H         0.679972        -2.290220         1.784924
 H        -0.767360        -1.476493        -1.827678
 H        -1.662111        -3.453485        -1.273334
