19
Iteration:  1839charge 0 multiplicity 1
 C         1.524510         0.619091        -0.225859
 C         0.087792         0.207151         0.112740
 C        -0.979818         0.821451        -0.319488
 C        -2.074658        -0.249860        -0.332718
 C        -1.979179        -0.753015         1.218586
 C        -0.456588        -1.154603         0.508021
 O         0.561919        -1.982532         1.033338
 C        -1.253968        -1.569104        -0.763943
 O        -2.020153        -2.727603        -0.710629
 H         1.532144         0.876995        -1.251198
 H         1.893861         1.616830         0.182858
 H         2.247543        -0.199515        -0.057808
 H        -0.981661         1.852440        -0.668521
 H        -3.120101        -0.133444        -0.679766
 H        -2.027892         0.042903         1.984960
 H        -2.842212        -1.411747         1.512628
 H         0.248197        -2.945012         0.946459
 H        -0.602354        -1.379589        -1.674821
 H        -2.384951        -2.875960        -1.686589
