19
Iteration:  3486charge 0 multiplicity 1
 C         1.551416         0.718885         0.039930
 C         0.095287         0.125179        -0.041058
 C        -0.947835         0.695519        -0.728810
 C        -2.122756        -0.261929        -0.445367
 C        -1.831747        -0.558002         1.055793
 C        -0.476248        -1.116862         0.503733
 O         0.310030        -2.030816         1.160330
 C        -1.306720        -1.625407        -0.778229
 O        -1.897135        -2.807381        -0.477504
 H         2.220579        -0.127120         0.228088
 H         1.742163         1.336598        -0.862560
 H         1.485612         1.299338         0.988912
 H        -0.903262         1.528351        -1.454530
 H        -3.155200        -0.008358        -0.840030
 H        -1.663673         0.382876         1.597191
 H        -2.333133        -1.346332         1.609403
 H         0.867759        -1.510950         1.728721
 H        -0.911910        -1.643103        -1.877636
 H        -2.452600        -3.105173        -1.179083
