19
Iteration:  4849charge 0 multiplicity 1
 C         1.640607         0.298775        -0.093613
 C         0.227333         0.009816        -0.428123
 C        -0.606432         0.118340        -1.412273
 C        -1.885390        -0.531808        -0.998394
 C        -2.059764        -0.135852         0.484239
 C        -0.642651        -0.775801         0.604393
 O        -0.207849        -1.106273         1.947791
 C        -1.154506        -1.855622        -0.437325
 O        -1.856381        -2.881913         0.247421
 H         2.358506         0.014471        -0.881940
 H         1.778388         1.375534         0.190868
 H         1.849280        -0.108672         0.916418
 H        -0.522041         0.621069        -2.451988
 H        -2.759574        -0.591353        -1.622065
 H        -2.295849         0.869806         0.860315
 H        -2.725979        -0.843157         0.942519
 H         0.533493        -1.822155         1.794509
 H        -0.396379        -2.389031        -1.067261
 H        -1.996715        -3.689782        -0.262836
