19
Iteration:  1366
 C         1.518424         0.496606        -0.133985
 C         0.092931         0.226293         0.045824
 C        -0.981652         0.786161        -0.582821
 C        -2.125165        -0.286655        -0.330080
 C        -1.879304        -0.644491         1.089645
 C        -0.465087        -1.035368         0.566121
 O         0.453798        -1.913421         1.206747
 C        -1.294975        -1.540654        -0.782460
 O        -1.911713        -2.826975        -0.746337
 H         1.622209         1.610941         0.032767
 H         2.119870         0.010246         0.588512
 H         1.827150         0.250790        -1.194816
 H        -1.001698         1.741626        -1.138688
 H        -3.151663        -0.044255        -0.663997
 H        -2.040100         0.047605         1.986961
 H        -2.551095        -1.429005         1.418781
 H         0.352437        -2.799792         0.851636
 H        -0.830922        -1.421221        -1.756098
 H        -2.353920        -3.005279         0.171235
