19
Iteration:  3411charge 0 multiplicity 1
 C         1.529699         0.613789        -0.054472
 C         0.085675         0.222235        -0.063307
 C        -1.006381         0.804416        -0.617655
 C        -2.123475        -0.258563        -0.381386
 C        -1.777008        -0.720720         1.079947
 C        -0.440808        -1.086858         0.524947
 O         0.469723        -1.944262         1.225595
 C        -1.314076        -1.597116        -0.829856
 O        -2.026946        -2.766837        -0.682501
 H         1.699173         1.506674         0.584934
 H         2.028857        -0.335273         0.331696
 H         1.926484         0.807743        -1.084883
 H        -1.089150         1.636586        -1.294264
 H        -3.232635        -0.103392        -0.562760
 H        -1.795115         0.047989         1.908205
 H        -2.480952        -1.515061         1.315827
 H        -0.179426        -2.220663         1.994457
 H        -0.673592        -1.647982        -1.708776
 H        -1.689016        -3.385592         0.049721
