19
Iteration:   328
 C         1.434546         0.722140         0.159503
 C         0.078189         0.209140        -0.034214
 C        -1.126607         0.880433        -0.208531
 C        -2.132567        -0.207770         0.023445
 C        -1.555297        -0.841890         1.360494
 C        -0.414458        -1.187340         0.352643
 O         0.488897        -2.308208         0.479017
 C        -1.355875        -1.439564        -0.801338
 O        -2.111949        -2.607222        -0.909060
 H         1.502439         1.224132         1.119000
 H         2.070008        -0.234983         0.078193
 H         1.672721         1.509066        -0.644035
 H        -1.310933         1.927043        -0.353522
 H        -3.203179        -0.012221        -0.064188
 H        -1.412574        -0.059012         2.172692
 H        -2.100399        -1.673937         1.863090
 H         1.267849        -2.082555         1.005850
 H        -1.000562        -1.108933        -1.822714
 H        -1.619636        -3.336468        -0.598469
