19
Iteration:  4419
 C         1.647266         0.438804        -0.098233
 C         0.170505         0.060694        -0.313162
 C        -0.738931         0.425154        -1.301985
 C        -1.928467        -0.399272        -0.811547
 C        -2.034157        -0.377932         0.748636
 C        -0.602898        -0.883582         0.660575
 O         0.067214        -1.325450         1.790112
 C        -1.204584        -1.838879        -0.580881
 O        -1.917554        -2.956092        -0.062433
 H         2.274024         0.444224        -1.027967
 H         1.564162         1.373868         0.425536
 H         2.136531        -0.236104         0.585558
 H        -0.570206         0.993721        -2.183856
 H        -2.851132        -0.440507        -1.395056
 H        -2.361118         0.583858         1.310600
 H        -2.596129        -1.229476         1.048817
 H         0.875685        -1.857988         1.547149
 H        -0.605403        -2.224061        -1.403269
 H        -2.930542        -2.855000        -0.032594
