19
Iteration:  4414
 C         1.646717         0.413387        -0.105386
 C         0.170014         0.069417        -0.340129
 C        -0.740594         0.443341        -1.270064
 C        -1.967952        -0.406722        -0.822965
 C        -2.012416        -0.379018         0.765249
 C        -0.590237        -0.831711         0.653505
 O         0.035663        -1.347125         1.794981
 C        -1.176586        -1.855739        -0.589595
 O        -1.923069        -2.986781        -0.050107
 H         2.316279         0.470427        -0.946128
 H         1.720823         1.498968         0.259236
 H         2.068387        -0.166296         0.767355
 H        -0.600104         0.861090        -2.323369
 H        -2.837241        -0.245500        -1.492341
 H        -2.211249         0.500906         1.327065
 H        -2.705539        -1.192638         1.150451
 H         0.841773        -1.850072         1.462854
 H        -0.435599        -1.970556        -1.442089
 H        -2.874133        -2.855861        -0.008693
