19
Iteration:  1961charge 0 multiplicity 1
 C         1.605965         0.810127         0.169411
 C         0.096378         0.236749        -0.056672
 C        -1.068225         0.737626        -0.456436
 C        -2.126590        -0.305319        -0.257551
 C        -1.744147        -0.893458         1.201617
 C        -0.315807        -1.199449         0.350751
 O         0.610967        -2.070609         0.840682
 C        -1.379861        -1.469442        -0.852610
 O        -2.243403        -2.610796        -0.559590
 H         2.173665         0.199077         0.843889
 H         2.186630         0.646438        -0.831880
 H         1.591577         1.840366         0.578789
 H        -1.321796         1.688832        -0.913931
 H        -3.195681        -0.148308        -0.493571
 H        -1.599313        -0.070188         1.981243
 H        -2.423131        -1.746854         1.445425
 H         0.133105        -2.850267         1.267334
 H        -1.008880        -1.423830        -1.952370
 H        -2.187139        -3.096438        -1.478458
