19
Iteration:   233charge 0 multiplicity 1
 C         1.486042         0.607317        -0.013665
 C        -0.040887         0.249438         0.120942
 C        -1.123652         0.892965        -0.078370
 C        -2.129024        -0.236609        -0.009965
 C        -1.633342        -0.947056         1.286157
 C        -0.375865        -1.204596         0.398716
 O         0.585717        -2.158203         0.626076
 C        -1.431620        -1.349754        -0.856627
 O        -1.999857        -2.617345        -0.842247
 H         1.443944         1.677153        -0.402335
 H         1.939891         0.450337         0.958775
 H         1.982548        -0.039980        -0.688087
 H        -1.190052         1.965760        -0.401021
 H        -3.207102         0.034891        -0.107247
 H        -1.477934        -0.243373         2.075829
 H        -2.226526        -1.774267         1.614480
 H         0.692175        -2.727275        -0.117515
 H        -1.104936        -0.988624        -1.820241
 H        -2.201868        -2.951911        -1.694267
