19
Iteration:  3782charge 0 multiplicity 1
 C         1.538333         0.702164        -0.089081
 C         0.159348         0.172472        -0.157286
 C        -0.893640         0.624073        -0.927344
 C        -1.997979        -0.309872        -0.563787
 C        -1.840031        -0.440474         0.893808
 C        -0.457440        -1.101135         0.517830
 O         0.176742        -1.837289         1.508743
 C        -1.193738        -1.745927        -0.690277
 O        -1.999344        -2.868486        -0.372630
 H         1.430861         1.780035         0.099132
 H         1.873920         0.156187         0.820444
 H         2.190025         0.431744        -0.906303
 H        -0.830207         1.183306        -1.870396
 H        -2.955492        -0.157092        -0.998548
 H        -2.041607         0.536277         1.474852
 H        -2.612767        -1.071290         1.337291
 H         0.488437        -2.669764         1.251348
 H        -0.736202        -1.942354        -1.610352
 H        -2.384291        -2.636307         0.559164
