19
Iteration:  4013charge 0 multiplicity 1
 C         1.512253         0.573962         0.052380
 C         0.161663         0.164456        -0.246216
 C        -0.800990         0.523245        -1.138240
 C        -1.924225        -0.413971        -0.738495
 C        -1.847978        -0.309230         0.871084
 C        -0.575519        -0.964169         0.504788
 O         0.191837        -1.638797         1.518858
 C        -1.185728        -1.853769        -0.588866
 O        -2.136859        -2.874803        -0.139394
 H         1.505343         1.427792         0.780393
 H         2.077872        -0.263407         0.496235
 H         2.041831         0.909332        -0.812782
 H        -0.769764         1.219062        -1.944589
 H        -2.888989        -0.331386        -1.317892
 H        -1.774108         0.655772         1.318872
 H        -2.683423        -0.979012         1.335414
 H         0.764187        -2.140391         0.991321
 H        -0.647090        -2.160718        -1.523912
 H        -1.553377        -3.622601         0.157451
