19
Iteration:   698charge 0 multiplicity 1
 C         1.535128         0.595189        -0.174624
 C         0.050356         0.276369         0.141248
 C        -1.059267         0.894674        -0.182404
 C        -2.208126        -0.177455        -0.072023
 C        -1.797256        -0.878739         1.239007
 C        -0.428047        -1.161904         0.443634
 O         0.410277        -2.235775         0.616139
 C        -1.373029        -1.371703        -0.803733
 O        -1.858147        -2.648252        -0.723092
 H         1.992333         0.561274         0.788013
 H         1.875224        -0.281438        -0.789482
 H         1.493131         1.533343        -0.748352
 H        -1.312814         1.803026        -0.726260
 H        -3.208943         0.075806        -0.456311
 H        -1.687335        -0.307969         2.162474
 H        -2.428233        -1.750237         1.489418
 H         0.897363        -2.111378         1.486852
 H        -0.942083        -1.053523        -1.771784
 H        -1.113046        -3.307178        -0.698321
