19
Iteration:  3916charge 0 multiplicity 1
 C         1.533687         0.555511        -0.118334
 C         0.147962         0.097971        -0.286523
 C        -0.874107         0.500994        -1.053547
 C        -2.048980        -0.382357        -0.645934
 C        -1.849130        -0.309386         0.974750
 C        -0.511857        -0.935077         0.635841
 O         0.050573        -1.739729         1.619477
 C        -1.157141        -1.738096        -0.625241
 O        -1.930240        -2.848650        -0.404783
 H         2.121227         0.285549        -1.047488
 H         1.736037         1.649684        -0.009720
 H         2.028160         0.095290         0.702019
 H        -0.934272         1.272023        -1.815697
 H        -3.086662        -0.335092        -1.076262
 H        -1.718372         0.586100         1.530998
 H        -2.605376        -1.050503         1.483246
 H         0.810018        -2.201591         1.404294
 H        -0.490377        -1.845238        -1.456471
 H        -1.645107        -3.377424         0.419956
