19
Iteration:  1999charge 0 multiplicity 1
 C         1.477597         0.754066         0.168465
 C         0.081980         0.155408        -0.132677
 C        -1.029606         0.813715        -0.370924
 C        -2.097245        -0.193942        -0.143554
 C        -1.608896        -0.724853         1.213758
 C        -0.408831        -1.202048         0.354520
 O         0.621315        -2.089322         0.804198
 C        -1.433277        -1.517355        -0.785201
 O        -2.220693        -2.750700        -0.769626
 H         1.523674         0.903874         1.308551
 H         2.297883         0.150750        -0.102393
 H         1.556898         1.702619        -0.388505
 H        -1.050952         1.833929        -0.866400
 H        -3.145082         0.109493        -0.297647
 H        -1.364907        -0.072106         2.013768
 H        -2.241746        -1.451934         1.684525
 H         0.098345        -2.771147         1.327501
 H        -1.188867        -1.253584        -1.809555
 H        -1.636275        -3.599060        -0.963519
