19
Iteration:   603
 C         1.557182         0.805563        -0.019013
 C         0.111601         0.273633         0.135212
 C        -1.067655         0.889149        -0.236078
 C        -2.038860        -0.234179        -0.176556
 C        -1.757321        -0.947564         1.179093
 C        -0.401115        -1.274880         0.467808
 O         0.757287        -2.118464         0.816255
 C        -1.436775        -1.527971        -0.916396
 O        -2.322512        -2.616395        -0.786433
 H         1.550344         1.834774         0.414687
 H         2.228239         0.104647         0.551173
 H         1.742135         0.723128        -1.097364
 H        -1.134969         1.796013        -0.694507
 H        -3.062841        -0.135376        -0.446760
 H        -1.652631        -0.333566         2.115120
 H        -2.530835        -1.816006         1.375436
 H         0.624410        -2.508005         1.677138
 H        -1.177888        -1.393032        -1.986931
 H        -2.104363        -3.182638        -1.471600
