19
Iteration:  1482charge 0 multiplicity 1
 C         1.474977         0.745096         0.132832
 C         0.087025         0.261157        -0.055474
 C        -0.963569         0.731593        -0.708901
 C        -2.042742        -0.297773        -0.396514
 C        -1.835035        -0.613053         1.123469
 C        -0.441546        -1.163748         0.528301
 O         0.549358        -2.113328         0.936775
 C        -1.268837        -1.689021        -0.689600
 O        -2.174396        -2.662156        -0.561296
 H         1.834811         1.389102        -0.727368
 H         1.700746         1.252948         1.074429
 H         2.094338        -0.129345         0.030797
 H        -1.105319         1.668383        -1.301034
 H        -3.035000        -0.167031        -0.805378
 H        -1.626259         0.233334         1.780160
 H        -2.702169        -1.173186         1.630145
 H         0.717071        -1.933545         1.874937
 H        -1.023066        -1.704907        -1.777630
 H        -1.939074        -3.587753        -0.871872
