19
Iteration:  3378charge 0 multiplicity 1
 C         1.523263         0.666759        -0.129665
 C         0.112373         0.184787        -0.040992
 C        -1.001894         0.716974        -0.607883
 C        -2.139240        -0.254925        -0.332724
 C        -1.836260        -0.585127         1.171114
 C        -0.513137        -1.094002         0.535555
 O         0.440216        -2.002961         1.199457
 C        -1.333656        -1.552586        -0.752496
 O        -1.897712        -2.833145        -0.798104
 H         1.816304         1.671882        -0.425463
 H         2.163902         0.711862         0.806809
 H         2.256130         0.046014        -0.651217
 H        -1.075283         1.650693        -1.028002
 H        -3.239788        -0.080791        -0.477212
 H        -1.680407         0.265036         1.870961
 H        -2.462850        -1.333917         1.659654
 H        -0.104801        -2.848988         1.376017
 H        -0.772705        -1.488537        -1.673847
 H        -2.274705        -3.065499         0.125561
