19
Iteration:  2518
 C         1.520618         0.797998         0.030110
 C         0.093068         0.192710         0.076126
 C        -1.014430         0.869092         0.018548
 C        -2.153829        -0.164759        -0.067100
 C        -1.703147        -1.048073         1.147177
 C        -0.428022        -1.213037         0.298872
 O         0.478058        -2.252646         0.722833
 C        -1.457001        -1.383234        -0.912109
 O        -1.979571        -2.645234        -0.765100
 H         1.659124         1.461461        -0.894369
 H         1.706738         1.527631         0.908307
 H         2.428277         0.164646         0.036619
 H        -1.182430         1.957362        -0.299768
 H        -3.199608         0.222396        -0.215929
 H        -1.718652        -0.500251         2.042259
 H        -2.299505        -1.961107         1.289275
 H         1.284506        -2.228821         0.309411
 H        -1.362235        -1.034835        -2.006093
 H        -2.537545        -2.728617        -1.466433
