19
Iteration:   473charge 0 multiplicity 1
 C         1.480797         0.674425        -0.049185
 C         0.044149         0.257391         0.151729
 C        -1.053612         0.853943        -0.191112
 C        -2.076605        -0.252296        -0.164794
 C        -1.635876        -1.018713         1.257126
 C        -0.352482        -1.211191         0.391305
 O         0.634903        -1.983668         0.856966
 C        -1.380588        -1.462979        -0.896985
 O        -2.217911        -2.625276        -0.834050
 H         1.785855         0.159689        -1.013232
 H         1.504171         1.770119         0.059340
 H         2.173602         0.202200         0.662455
 H        -1.177591         1.915855        -0.459981
 H        -3.142148        -0.141912        -0.324380
 H        -1.446895        -0.463089         2.128220
 H        -2.303162        -1.857230         1.553738
 H         0.415251        -2.932180         0.731373
 H        -0.965059        -1.286939        -1.947082
 H        -2.779926        -2.569248        -1.607238
