19
Iteration:  1228charge 0 multiplicity 1
 C         1.512552         0.657447         0.138071
 C         0.149452         0.183834        -0.198998
 C        -0.986580         0.775719        -0.707389
 C        -2.168787        -0.226287        -0.234603
 C        -1.679478        -0.637162         1.217886
 C        -0.429618        -1.169343         0.416946
 O         0.506733        -1.965969         1.086932
 C        -1.459316        -1.582461        -0.729525
 O        -2.058834        -2.839918        -0.741154
 H         2.033620         1.025524        -0.707317
 H         1.590951         1.660068         0.791654
 H         2.121877         0.018432         0.743979
 H        -1.107042         1.817881        -0.807844
 H        -3.204424        -0.047937        -0.562832
 H        -1.589571         0.235116         1.868194
 H        -2.331651        -1.449104         1.579021
 H         0.794178        -2.775468         0.521409
 H        -1.125771        -1.513517        -1.783079
 H        -2.565310        -2.968073         0.113496
