19
Iteration:  3574charge 0 multiplicity 1
 C         1.536578         0.551234         0.035654
 C         0.110171         0.191890        -0.146433
 C        -0.978848         0.736246        -0.830806
 C        -2.012946        -0.228926        -0.519451
 C        -1.913983        -0.551586         1.018494
 C        -0.449205        -1.052623         0.565630
 O         0.466707        -1.868488         1.280781
 C        -1.354661        -1.693867        -0.709372
 O        -2.024585        -2.889876        -0.485926
 H         1.803068         1.619008        -0.055065
 H         2.012142         0.265727         1.012269
 H         2.275946         0.163077        -0.731189
 H        -1.121516         1.768875        -1.262212
 H        -3.093234        -0.012233        -0.761752
 H        -2.081222         0.220013         1.853686
 H        -2.588504        -1.362618         1.174669
 H         0.287868        -1.832599         2.262615
 H        -0.836784        -1.626935        -1.745555
 H        -1.935907        -3.365328        -1.296081
