19
Iteration:  4492
 C         1.587112         0.652145        -0.092135
 C         0.256513        -0.066239        -0.339046
 C        -0.625993         0.265602        -1.264003
 C        -1.959476        -0.506157        -0.813940
 C        -1.951732        -0.206480         0.738285
 C        -0.592098        -0.915154         0.588167
 O        -0.012220        -1.378215         1.828244
 C        -1.279155        -1.885008        -0.587789
 O        -1.972855        -2.931954        -0.095438
 H         1.305633         1.578179         0.401263
 H         2.235018         0.022774         0.521992
 H         2.002075         1.059723        -1.038380
 H        -0.474205         0.714091        -2.231044
 H        -2.841837        -0.294661        -1.377062
 H        -1.949763         0.849512         1.078862
 H        -2.698782        -0.837961         1.150897
 H         0.675893        -2.149002         1.608663
 H        -0.535344        -2.166344        -1.344574
 H        -2.150754        -2.741271         0.903063
