19
Iteration:  4391charge 0 multiplicity 1
 C         1.651661         0.427673        -0.123680
 C         0.107783         0.144964        -0.251986
 C        -0.792594         0.371059        -1.237361
 C        -1.975924        -0.490071        -0.744399
 C        -1.928098        -0.158358         0.732330
 C        -0.572232        -0.912949         0.604221
 O        -0.064786        -1.424026         1.746149
 C        -1.175063        -1.829427        -0.521180
 O        -1.815901        -2.982259        -0.143796
 H         2.228896        -0.261955        -0.755291
 H         2.035092         1.455289        -0.435448
 H         1.935054         0.306698         0.973498
 H        -0.739688         1.079535        -2.084302
 H        -2.902361        -0.595916        -1.357730
 H        -2.027297         0.851918         0.957325
 H        -2.629904        -0.813575         1.383033
 H         0.667638        -1.989354         1.639521
 H        -0.504865        -1.991705        -1.456081
 H        -2.726010        -3.032407         0.158190
