19
Iteration:  1185charge 0 multiplicity 1
 C         1.536410         0.612578        -0.140414
 C         0.074207         0.232963         0.047358
 C        -1.050297         0.806389        -0.569990
 C        -2.110193        -0.292611        -0.309404
 C        -1.837795        -0.660129         1.183268
 C        -0.445444        -1.156969         0.459318
 O         0.371455        -2.110470         1.088704
 C        -1.288676        -1.448160        -0.746778
 O        -1.864809        -2.735866        -0.589973
 H         1.713011         0.529309        -1.200257
 H         1.710674         1.694935         0.270760
 H         2.118273        -0.078700         0.440969
 H        -1.200052         1.769187        -0.974390
 H        -3.141565        -0.033248        -0.511945
 H        -1.606077         0.166135         1.828810
 H        -2.244001        -1.581509         1.612809
 H         0.554837        -2.735409         0.341807
 H        -0.708827        -1.429499        -1.692262
 H        -2.796840        -2.756216        -1.037379
