19
Iteration:  1728
 C         1.517008         0.707464         0.169049
 C         0.118562         0.235848        -0.020378
 C        -0.964202         0.782978        -0.609077
 C        -2.112768        -0.243480        -0.325792
 C        -1.784398        -0.822384         1.123619
 C        -0.426699        -1.123838         0.389470
 O         0.421560        -2.155021         0.807431
 C        -1.294238        -1.438028        -0.861259
 O        -2.130716        -2.682525        -0.444610
 H         1.408790         1.636361         0.841026
 H         2.171197        -0.044608         0.663780
 H         1.980484         1.013703        -0.801799
 H        -0.926231         1.756609        -1.086642
 H        -3.121021        -0.208158        -0.690878
 H        -1.748666        -0.027874         1.900404
 H        -2.291152        -1.802245         1.406361
 H         0.701399        -2.163017         1.691339
 H        -0.983102        -1.519012        -1.955100
 H        -1.452718        -3.289933        -0.044348
