19
Iteration:  3354
 C         1.404418         0.578080        -0.079549
 C         0.064203         0.191556        -0.019238
 C        -0.966938         0.838641        -0.574237
 C        -2.041974        -0.225673        -0.297177
 C        -1.811875        -0.628980         1.210481
 C        -0.456126        -1.110146         0.510511
 O         0.445966        -1.963717         1.157522
 C        -1.343079        -1.569606        -0.780273
 O        -1.883960        -2.848048        -0.719828
 H         1.655590         1.059399        -1.025146
 H         1.847259         1.337870         0.592835
 H         2.121170        -0.266717         0.040162
 H        -1.008915         1.554702        -1.363210
 H        -3.044470        -0.048258        -0.685422
 H        -1.812803         0.196447         1.861805
 H        -2.564505        -1.376244         1.566699
 H         0.213456        -2.778495         0.829481
 H        -0.742842        -1.555218        -1.753219
 H        -2.790722        -2.886683        -0.578167
