19
Iteration:  3462charge 0 multiplicity 1
 C         1.547014         0.599044         0.060114
 C         0.059520         0.261324        -0.119432
 C        -1.009169         0.793566        -0.819692
 C        -2.051840        -0.265850        -0.405409
 C        -1.854899        -0.604523         1.080717
 C        -0.472878        -1.051163         0.590339
 O         0.405963        -2.041844         1.126095
 C        -1.204088        -1.608009        -0.699517
 O        -2.037093        -2.824670        -0.529733
 H         1.865604        -0.023950         0.902445
 H         2.065593         0.399348        -0.848921
 H         1.565840         1.641936         0.424825
 H        -1.297334         1.648098        -1.318853
 H        -3.041986        -0.316260        -0.827303
 H        -1.854222         0.207768         1.750993
 H        -2.418964        -1.528799         1.442863
 H         0.781669        -1.580760         1.855300
 H        -0.668902        -1.637327        -1.705046
 H        -2.024885        -3.306180        -1.332079
