19
Iteration:  2649
 C         1.516622         0.737376         0.054078
 C         0.087272         0.213706         0.205076
 C        -1.108984         0.905556        -0.025707
 C        -2.150697        -0.255250        -0.122365
 C        -1.756070        -0.960290         1.258568
 C        -0.362836        -1.149217         0.361878
 O         0.542306        -2.266977         0.488709
 C        -1.375116        -1.389984        -0.889756
 O        -2.031758        -2.594912        -0.772338
 H         1.409540         1.823526         0.304691
 H         2.141077         0.157929         0.740374
 H         1.771077         0.675591        -0.974755
 H        -1.182651         1.812715        -0.497226
 H        -3.185294         0.090034        -0.441309
 H        -1.590507        -0.323350         2.039361
 H        -2.385944        -1.845395         1.444290
 H         0.778300        -2.435591         1.406668
 H        -0.926272        -1.230417        -1.899679
 H        -2.157925        -3.026564        -1.568713
