19
Iteration:  3808charge 0 multiplicity 1
 C         1.614793         0.705608        -0.112979
 C         0.181549         0.101828        -0.201450
 C        -0.763903         0.572086        -0.960290
 C        -2.076458        -0.314998        -0.648793
 C        -1.886765        -0.312739         1.038759
 C        -0.574045        -1.045656         0.565636
 O         0.143286        -1.808234         1.536900
 C        -1.314168        -1.704989        -0.615680
 O        -1.942015        -2.989962        -0.469079
 H         1.647190         1.431542         0.752622
 H         2.270007        -0.239355         0.030126
 H         1.900261         1.140805        -1.098824
 H        -0.893380         1.551381        -1.447635
 H        -3.028410        -0.180766        -1.221547
 H        -2.031522         0.591539         1.510406
 H        -2.478223        -1.069405         1.672115
 H         0.781924        -2.336022         1.160207
 H        -0.660383        -1.778701        -1.596909
 H        -1.868773        -3.222926         0.510841
