19
Iteration:    80charge 0 multiplicity 1
 C         1.484967         0.730167         0.283249
 C         0.147307         0.254290        -0.038507
 C        -1.156952         0.799624        -0.186432
 C        -2.151334        -0.294025         0.116484
 C        -1.507736        -0.901586         1.408129
 C        -0.342517        -1.194426         0.322840
 O         0.689493        -2.155719         0.474109
 C        -1.459215        -1.397285        -0.867554
 O        -2.320994        -2.578282        -1.020703
 H         2.297468        -0.058392         0.153709
 H         1.979223         1.590058        -0.107684
 H         1.517502         0.868647         1.295199
 H        -1.384211         1.778488        -0.657409
 H        -3.246092        -0.218668        -0.014488
 H        -1.341304        -0.269496         2.273552
 H        -2.048697        -1.769843         1.673965
 H         0.223117        -2.790515         1.005747
 H        -1.221514        -0.912096        -1.811126
 H        -1.807450        -3.296890        -1.424378
