19
Iteration:  2424charge 0 multiplicity 1
 C         1.531513         0.774910         0.094957
 C         0.113933         0.237829         0.075192
 C        -1.106944         0.903246        -0.097851
 C        -2.117836        -0.211228        -0.071845
 C        -1.645990        -0.966301         1.175064
 C        -0.353683        -1.278946         0.301189
 O         0.637640        -2.158377         0.660216
 C        -1.438119        -1.429051        -0.924178
 O        -2.194929        -2.673719        -0.783065
 H         1.577020         1.905797        -0.048738
 H         1.954162         0.451471         1.023225
 H         2.158166         0.383472        -0.733248
 H        -1.268671         1.995207        -0.232971
 H        -3.183500         0.119766        -0.135275
 H        -1.610450        -0.243995         2.050379
 H        -2.149804        -1.870414         1.628121
 H         0.318176        -2.603723         1.545636
 H        -1.087001        -1.131843        -1.922158
 H        -2.540955        -2.928907        -1.726724
