19
Iteration:  2691
 C         1.444358         0.827560         0.240788
 C         0.162606         0.230951        -0.042241
 C        -1.091577         0.789172        -0.308719
 C        -2.154521        -0.255277         0.036249
 C        -1.559044        -0.932529         1.306164
 C        -0.350185        -1.231260         0.344335
 O         0.527767        -2.303078         0.665712
 C        -1.494191        -1.326326        -0.874086
 O        -2.195211        -2.604685        -0.915157
 H         1.325266         1.479706         1.090607
 H         2.160700         0.032415         0.542083
 H         1.964390         1.418659        -0.496332
 H        -1.297473         1.708484        -0.727492
 H        -3.236603         0.017146        -0.134639
 H        -1.407900        -0.250914         2.139165
 H        -1.859481        -1.980814         1.634018
 H         1.417592        -1.910824         1.042749
 H        -1.171656        -0.934666        -1.805558
 H        -1.676152        -3.157247        -1.613800
