19
Iteration:    23charge 0 multiplicity 1
 C         1.633890         0.784732         0.188630
 C         0.107785         0.349046         0.165776
 C        -1.110281         0.907411         0.075405
 C        -2.146330        -0.251703        -0.103639
 C        -1.695401        -1.056715         1.192033
 C        -0.398994        -1.172742         0.271703
 O         0.474890        -2.273485         0.276769
 C        -1.392428        -1.357522        -0.865555
 O        -2.104077        -2.615623        -0.706010
 H         2.227896         0.170643         0.878096
 H         1.986833         0.623855        -0.825741
 H         1.690968         1.823781         0.422579
 H        -1.458563         1.887313         0.296180
 H        -3.183280        -0.030206        -0.327281
 H        -1.743202        -0.365871         2.018319
 H        -2.150948        -2.012143         1.388709
 H         0.550514        -2.629446         1.209741
 H        -1.171588        -1.246029        -1.910895
 H        -1.623344        -3.290227        -1.268698
