19
Iteration:   920
 C         1.525686         0.641693        -0.175821
 C         0.104904         0.163306         0.002535
 C        -1.052494         0.812704        -0.340075
 C        -2.135757        -0.225237        -0.182443
 C        -1.820669        -0.842679         1.235909
 C        -0.416232        -1.198036         0.525765
 O         0.668538        -1.947472         1.094620
 C        -1.364956        -1.490366        -0.810402
 O        -2.169395        -2.650355        -0.860767
 H         1.487455         1.686916        -0.236018
 H         2.036919         0.486034         0.924130
 H         2.063310         0.010094        -0.860499
 H        -1.194063         1.548040        -1.088200
 H        -3.127583        -0.066134        -0.671407
 H        -1.854409        -0.049263         2.025152
 H        -2.497638        -1.683981         1.448172
 H         0.502614        -2.929496         1.011273
 H        -0.800702        -1.349143        -1.751178
 H        -1.647765        -3.280170        -1.475447
