19
Iteration:   675charge 0 multiplicity 1
 C         1.571804         0.575876        -0.173763
 C         0.049505         0.244158         0.103099
 C        -1.078026         0.888802        -0.231977
 C        -2.181420        -0.243634        -0.019512
 C        -1.769771        -0.759856         1.386368
 C        -0.456979        -1.132577         0.556098
 O         0.402870        -2.164093         0.658302
 C        -1.375115        -1.389808        -0.757498
 O        -1.911298        -2.747021        -0.980666
 H         2.014461         1.022421         0.689308
 H         1.987979        -0.423474        -0.349267
 H         1.479216         1.110336        -1.120191
 H        -1.324895         1.824614        -0.599828
 H        -3.239939         0.035649        -0.235273
 H        -1.718873        -0.167212         2.279009
 H        -2.260264        -1.637668         1.692724
 H         1.026663        -1.952579         1.322624
 H        -0.815521        -1.090985        -1.668833
 H        -1.101474        -3.207204        -1.092458
