19
Iteration:  4455charge 0 multiplicity 1
 C         1.571794         0.556806        -0.107963
 C         0.169931         0.135935        -0.309837
 C        -0.764755         0.376509        -1.220553
 C        -1.867399        -0.584191        -0.842978
 C        -1.911419        -0.182668         0.713431
 C        -0.577457        -0.896835         0.654791
 O         0.095206        -1.364761         1.834097
 C        -1.183339        -1.955358        -0.524365
 O        -2.052876        -2.987619        -0.150550
 H         1.718507         1.611012        -0.431146
 H         1.853710         0.685554         0.987673
 H         2.361118        -0.173035        -0.462940
 H        -0.587405         0.708302        -2.265695
 H        -2.889269        -0.721229        -1.307926
 H        -1.989541         0.867065         0.871182
 H        -2.743074        -0.605752         1.418091
 H         0.720495        -2.028879         1.360523
 H        -0.343254        -2.437710        -1.170405
 H        -2.994397        -2.528754        -0.128462
