19
Iteration:  4542
 C         1.659965         0.482362        -0.051170
 C         0.187798         0.193300        -0.312921
 C        -0.728858         0.351123        -1.305123
 C        -1.888412        -0.561907        -0.899117
 C        -2.061473        -0.223095         0.606528
 C        -0.582607        -0.834244         0.543972
 O        -0.076068        -1.564361         1.694423
 C        -1.120893        -1.817652        -0.468433
 O        -1.987139        -2.842190         0.134364
 H         1.918474         0.028918         0.921626
 H         2.274382         0.009893        -0.840261
 H         1.773617         1.567919         0.183194
 H        -0.642599         0.772564        -2.361767
 H        -2.691283        -0.880901        -1.631276
 H        -2.183419         0.830409         0.707249
 H        -2.906775        -0.804033         1.213977
 H         0.836973        -1.483418         1.774150
 H        -0.479036        -2.271359        -1.271149
 H        -1.453814        -3.198113         0.834346
