19
Iteration:  4102charge 0 multiplicity 1
 C         1.636689         0.438338        -0.257013
 C         0.200315         0.072224        -0.180306
 C        -0.751442         0.440673        -1.097957
 C        -1.989130        -0.369844        -0.759408
 C        -2.118451        -0.448080         0.906448
 C        -0.625001        -0.912395         0.650448
 O         0.068670        -1.524742         1.738599
 C        -1.155034        -1.775883        -0.642611
 O        -1.883937        -2.821393        -0.192391
 H         2.308084        -0.343510         0.179005
 H         1.845260         0.555961        -1.342924
 H         1.703738         1.324161         0.320124
 H        -0.582210         1.381518        -1.598775
 H        -2.817477        -0.013835        -1.425545
 H        -2.175058         0.564048         1.416218
 H        -2.715032        -1.308082         1.279262
 H         0.983977        -1.570174         1.561977
 H        -0.362095        -2.066861        -1.456659
 H        -2.489874        -3.184269        -0.945069
