19
Iteration:  2316
 C         1.442382         0.518390        -0.103801
 C         0.052587         0.207966         0.034246
 C        -1.072149         0.886259        -0.140606
 C        -2.250186        -0.166025         0.027743
 C        -1.775104        -0.988199         1.267770
 C        -0.447803        -1.181258         0.417032
 O         0.633719        -2.094833         0.741829
 C        -1.346192        -1.344015        -0.862831
 O        -1.889743        -2.611512        -0.857118
 H         1.826922         1.000170         0.838236
 H         2.133496        -0.260364        -0.257875
 H         1.652742         1.266859        -0.897355
 H        -1.288460         1.838263        -0.748901
 H        -3.334840         0.187719        -0.112085
 H        -1.650090        -0.449052         2.187522
 H        -2.267655        -1.922804         1.326558
 H         0.254315        -2.885140         1.306522
 H        -0.864146        -0.966868        -1.797847
 H        -2.557000        -2.568129        -1.553535
