19
Iteration:  4034
 C         1.565026         0.592546        -0.010558
 C         0.246651        -0.016451        -0.303567
 C        -0.775874         0.444847        -1.142738
 C        -2.050977        -0.293712        -0.726348
 C        -1.967840        -0.312413         0.819589
 C        -0.480555        -1.015333         0.567592
 O         0.214005        -1.604331         1.660938
 C        -1.347769        -1.750772        -0.592768
 O        -2.026850        -2.871018        -0.179932
 H         1.434460         1.052363         1.018200
 H         2.430083        -0.107998        -0.010491
 H         1.719340         1.431591        -0.687035
 H        -0.675002         1.081330        -1.993228
 H        -3.066516        -0.068766        -1.139806
 H        -2.031954         0.647165         1.260576
 H        -2.773178        -1.053091         1.269007
 H         0.849402        -2.291867         1.321984
 H        -0.673037        -2.076008        -1.508458
 H        -1.442118        -3.651711        -0.408072
