19
Iteration:   113
 C         1.452273         0.678206         0.083822
 C         0.046791         0.155929         0.071234
 C        -1.067091         0.816829        -0.133653
 C        -2.098680        -0.254365         0.036891
 C        -1.553816        -1.043287         1.330245
 C        -0.349345        -1.270849         0.316597
 O         0.755003        -2.005274         0.746693
 C        -1.475399        -1.337316        -0.918014
 O        -2.324991        -2.507046        -0.998598
 H         1.880368         0.239080        -0.871527
 H         1.405431         1.715630         0.207481
 H         1.905432         0.178226         0.858433
 H        -1.285688         1.907619        -0.153785
 H        -3.183986        -0.125183        -0.168365
 H        -1.403619        -0.483698         2.236228
 H        -2.130276        -1.908432         1.478139
 H         0.662183        -3.013749         0.640531
 H        -1.200905        -0.892865        -1.868206
 H        -1.944901        -3.215925        -1.657563
