19
Iteration:    73
 C         1.466626         0.758693         0.309990
 C         0.116357         0.228733        -0.051308
 C        -1.097647         0.786848        -0.219247
 C        -2.088141        -0.317934         0.082959
 C        -1.552271        -0.927393         1.402829
 C        -0.360339        -1.187083         0.311214
 O         0.643838        -2.171825         0.414614
 C        -1.487454        -1.356325        -0.811129
 O        -2.260730        -2.562529        -0.961008
 H         2.176364        -0.135677         0.242021
 H         1.937704         1.535805        -0.385723
 H         1.430598         1.059268         1.459195
 H        -1.372504         1.825101        -0.508119
 H        -3.153474        -0.070652        -0.048573
 H        -1.259589        -0.388084         2.331656
 H        -2.228545        -1.823828         1.674791
 H         0.356644        -2.780035         1.064648
 H        -1.246353        -1.037419        -1.861930
 H        -1.697484        -3.123867        -1.430321
