19
Iteration:  1408
 C         1.536278         0.559376        -0.123031
 C         0.090829         0.210587         0.006113
 C        -1.026990         0.776100        -0.555617
 C        -2.055564        -0.324953        -0.377237
 C        -1.886114        -0.676604         1.077498
 C        -0.426377        -1.104955         0.513913
 O         0.375472        -1.944696         1.253213
 C        -1.211107        -1.512673        -0.758248
 O        -2.062279        -2.717431        -0.663270
 H         1.770147         1.695129        -0.042482
 H         2.173310         0.033254         0.543677
 H         1.763565         0.355607        -1.232058
 H        -1.131625         1.790490        -0.949266
 H        -3.041846        -0.333213        -0.821775
 H        -2.136254         0.165664         1.776161
 H        -2.345411        -1.606175         1.471593
 H         0.849937        -2.351677         0.548273
 H        -0.649896        -1.649638        -1.674457
 H        -1.482670        -3.486313        -0.320737
