19
Iteration:   881charge 0 multiplicity 1
 C         1.509317         0.549292        -0.132535
 C         0.040841         0.302349        -0.034398
 C        -1.134772         0.890513        -0.333420
 C        -2.152393        -0.208332        -0.106005
 C        -1.683870        -0.717262         1.292864
 C        -0.453906        -1.088118         0.450190
 O         0.362373        -2.159984         0.946475
 C        -1.340021        -1.438659        -0.766711
 O        -1.798002        -2.796806        -0.801208
 H         1.898478         1.059091        -1.080520
 H         1.796036         1.215131         0.619139
 H         2.245848        -0.270737         0.031247
 H        -1.281790         1.618355        -1.132570
 H        -3.189907         0.101580        -0.304078
 H        -1.404909         0.015570         2.102758
 H        -2.104881        -1.643207         1.661751
 H        -0.322682        -2.872474         0.874294
 H        -0.892755        -1.201625        -1.745685
 H        -2.151891        -3.055679        -1.658786
