19
Iteration:  4012
 C         1.515140         0.571741         0.058809
 C         0.157446         0.176216        -0.245463
 C        -0.799282         0.520768        -1.139551
 C        -1.920324        -0.425266        -0.746519
 C        -1.849333        -0.312806         0.874405
 C        -0.565146        -0.971021         0.504935
 O         0.186834        -1.637960         1.514928
 C        -1.195071        -1.848294        -0.577132
 O        -2.135855        -2.870794        -0.141957
 H         1.518338         1.444801         0.766868
 H         2.057050        -0.269779         0.517918
 H         2.041491         0.898732        -0.849365
 H        -0.796720         1.261782        -1.945708
 H        -2.888255        -0.350246        -1.284364
 H        -1.763258         0.655182         1.295904
 H        -2.681449        -0.968309         1.330904
 H         0.796913        -2.157835         0.963843
 H        -0.635696        -2.186843        -1.531261
 H        -1.559580        -3.580499         0.163342
