19
Iteration:  1695charge 0 multiplicity 1
 C         1.535998         0.723429         0.048761
 C         0.110980         0.204017        -0.048566
 C        -0.983084         0.808786        -0.494738
 C        -2.132292        -0.223088        -0.312704
 C        -1.740532        -0.595545         1.158917
 C        -0.407220        -1.162813         0.443818
 O         0.360781        -2.172183         0.986493
 C        -1.314968        -1.497854        -0.804927
 O        -2.122679        -2.855385        -0.673476
 H         1.793274         1.113983         1.076673
 H         2.360865         0.006734        -0.089447
 H         1.668741         1.596516        -0.637626
 H        -1.011208         1.912546        -0.706536
 H        -3.122947        -0.088628        -0.735175
 H        -1.627621         0.336162         1.777098
 H        -2.386486        -1.367327         1.698002
 H         1.095273        -1.803799         1.560943
 H        -0.923666        -1.561988        -1.853469
 H        -1.456120        -3.663243        -0.864423
