19
Iteration:  3923charge 0 multiplicity 1
 C         1.570403         0.569039        -0.130602
 C         0.180573         0.133263        -0.314193
 C        -0.889597         0.526999        -1.019461
 C        -2.067400        -0.402804        -0.624922
 C        -1.868260        -0.302329         0.951095
 C        -0.505037        -1.009421         0.564856
 O         0.039504        -1.757221         1.643100
 C        -1.175461        -1.692821        -0.587584
 O        -1.944871        -2.871487        -0.393730
 H         2.228099         0.603775        -0.994209
 H         1.579274         1.603317         0.232696
 H         2.055957         0.076595         0.734145
 H        -0.736012         1.063056        -2.045904
 H        -2.981102        -0.464906        -1.140282
 H        -1.792768         0.737374         1.426694
 H        -2.423049        -0.868415         1.686360
 H         0.825005        -2.169861         1.329521
 H        -0.579289        -1.862884        -1.509177
 H        -1.609953        -3.384791         0.362968
