19
Iteration:  1105
 C         1.526317         0.513980        -0.099016
 C        -0.017469         0.185549        -0.105794
 C        -1.152787         0.759881        -0.523982
 C        -2.109016        -0.286438        -0.204548
 C        -1.705051        -0.657350         1.264839
 C        -0.420831        -1.123221         0.568468
 O         0.541631        -2.004482         1.058100
 C        -1.253708        -1.526056        -0.667419
 O        -2.081658        -2.631839        -0.948520
 H         2.122210        -0.330481        -0.398865
 H         1.904232         1.394003        -0.699992
 H         1.643368         0.794518         0.968478
 H        -1.233221         1.653319        -1.150843
 H        -3.160604        -0.097518        -0.442296
 H        -1.677887         0.036801         2.107945
 H        -2.249487        -1.490209         1.558813
 H         0.459831        -2.095627         2.051666
 H        -0.791139        -1.337526        -1.646106
 H        -1.748812        -3.602460        -0.777088
