19
Iteration:  1921charge 0 multiplicity 1
 C         1.446716         0.574361         0.025645
 C         0.052882         0.233080         0.046259
 C        -0.988873         0.839339        -0.430400
 C        -2.147606        -0.151849        -0.214350
 C        -1.775285        -0.680541         1.243065
 C        -0.498154        -1.204112         0.388504
 O         0.566071        -2.068788         0.865741
 C        -1.378538        -1.423857        -0.788194
 O        -1.960484        -2.820743        -0.653008
 H         2.161006        -0.294503         0.037554
 H         1.622642         1.173512        -0.826140
 H         1.844731         1.218952         0.811921
 H        -1.162506         1.829179        -0.784366
 H        -3.126217         0.033033        -0.616703
 H        -1.456101         0.112978         1.872621
 H        -2.447657        -1.438294         1.628138
 H         0.280904        -2.940121         0.593280
 H        -0.829875        -1.362523        -1.727723
 H        -2.067182        -3.202161        -1.506837
