19
Iteration:  4996charge 0 multiplicity 1
 C         1.669432         0.553913        -0.016954
 C         0.214373         0.101833        -0.348002
 C        -0.493562        -0.054057        -1.470921
 C        -1.794894        -0.730567        -1.067847
 C        -2.146801        -0.169803         0.382450
 C        -0.697428        -0.796799         0.577349
 O        -0.149126        -1.254322         1.828697
 C        -1.062261        -1.903326        -0.334801
 O        -2.086672        -2.734650         0.318506
 H         1.741733         0.681917         1.053271
 H         2.455526        -0.119761        -0.326775
 H         1.889147         1.477429        -0.527696
 H        -0.292310         0.288141        -2.510324
 H        -2.489127        -1.074714        -1.849621
 H        -2.182405         0.931979         0.501201
 H        -3.029206        -0.547825         0.807911
 H         0.356099        -0.611579         2.264684
 H        -0.345887        -2.523500        -0.813703
 H        -1.578764        -3.543653         0.553412
