19
Iteration:  2535charge 0 multiplicity 1
 C         1.503472         0.819805        -0.021914
 C         0.117874         0.273927         0.143407
 C        -1.056681         0.835582        -0.164547
 C        -2.139127        -0.277055         0.004382
 C        -1.681047        -1.062354         1.228916
 C        -0.330992        -1.220358         0.398315
 O         0.455104        -2.251252         0.795909
 C        -1.422840        -1.261108        -0.904008
 O        -2.085622        -2.607060        -0.898678
 H         1.681135         1.330713        -0.930348
 H         1.830793         1.476624         0.770518
 H         2.285765         0.031939        -0.068015
 H        -1.336736         1.894470        -0.225228
 H        -3.167981        -0.097008        -0.219695
 H        -1.550028        -0.619040         2.281095
 H        -2.086919        -2.059167         1.246536
 H         1.055990        -2.404565         0.121457
 H        -0.902564        -1.102207        -1.796930
 H        -2.572685        -2.888001        -1.623089
