19
Iteration:  2027charge 0 multiplicity 1
 C         1.585562         0.685117         0.098014
 C         0.053710         0.221244         0.037527
 C        -1.068766         0.760839        -0.481178
 C        -2.159576        -0.247295        -0.113304
 C        -1.744715        -0.802607         1.276774
 C        -0.422007        -1.116726         0.423384
 O         0.576641        -2.098519         0.679108
 C        -1.407824        -1.416326        -0.753366
 O        -2.081162        -2.698248        -0.758312
 H         1.773410         1.358134         0.894212
 H         2.126958        -0.325449         0.286597
 H         1.829265         1.094186        -0.884617
 H        -1.034393         1.674710        -1.011332
 H        -3.188834         0.022149        -0.289517
 H        -1.660074        -0.043577         2.128763
 H        -2.388201        -1.612776         1.731345
 H         0.043261        -2.693720         1.200133
 H        -1.058748        -1.145618        -1.793637
 H        -1.367517        -3.452931        -0.735796
