19
Iteration:   414
 C         1.486760         0.595027        -0.122534
 C         0.034428         0.301076         0.150918
 C        -1.110755         0.795845        -0.225665
 C        -2.182788        -0.254533         0.078825
 C        -1.587746        -0.930476         1.351678
 C        -0.377625        -1.184156         0.431186
 O         0.542784        -2.121060         0.749273
 C        -1.378040        -1.357284        -0.796441
 O        -2.106154        -2.559281        -1.069809
 H         2.223735        -0.161952        -0.057271
 H         1.706849         0.991167        -1.163221
 H         1.867132         1.386888         0.587213
 H        -1.284846         1.590266        -0.890840
 H        -3.269113        -0.259255        -0.001564
 H        -1.303182        -0.227923         2.236915
 H        -2.175325        -1.887142         1.541245
 H         0.280129        -2.688691         1.552530
 H        -1.106211        -0.919372        -1.766066
 H        -1.500108        -3.381962        -1.211522
