19
Iteration:  2128charge 0 multiplicity 1
 C         1.521420         0.649177        -0.086582
 C         0.052282         0.190690        -0.010508
 C        -1.085218         0.821372        -0.309652
 C        -2.195186        -0.322184        -0.101062
 C        -1.701562        -0.774679         1.315893
 C        -0.400465        -1.202804         0.589295
 O         0.568899        -2.103000         0.932025
 C        -1.351084        -1.407172        -0.840980
 O        -2.006602        -2.637373        -0.932931
 H         1.610850         1.164058        -1.092490
 H         1.661275         1.328903         0.719139
 H         2.127351        -0.227196         0.015552
 H        -1.250354         1.725435        -0.921090
 H        -3.221013        -0.232888        -0.475224
 H        -1.340263         0.007075         1.938553
 H        -2.250459        -1.572922         1.808538
 H         0.203859        -3.022256         0.886741
 H        -0.942363        -1.179716        -1.863721
 H        -2.629709        -2.463294        -1.549614
