19
Iteration:  4089charge 0 multiplicity 1
 C         1.624034         0.502796        -0.253117
 C         0.147607         0.152418        -0.199159
 C        -0.785333         0.541874        -1.068609
 C        -1.922304        -0.445750        -0.821694
 C        -1.974898        -0.364679         0.869341
 C        -0.547028        -0.973929         0.667050
 O         0.063300        -1.588663         1.806953
 C        -1.183493        -1.760101        -0.588665
 O        -2.010232        -2.890006        -0.235829
 H         2.236625        -0.206553         0.396886
 H         2.012246         0.357812        -1.283824
 H         1.989620         1.501200        -0.019971
 H        -0.880288         1.366442        -1.704588
 H        -2.910668        -0.547010        -1.345445
 H        -2.161059         0.581128         1.307318
 H        -2.775357        -1.091246         1.271759
 H         1.077343        -1.700624         1.597237
 H        -0.396308        -2.028468        -1.422525
 H        -2.317067        -3.263681        -1.032483
