19
Iteration:  4877
 C         1.661869         0.329381        -0.152909
 C         0.242440         0.054603        -0.306392
 C        -0.613361         0.196765        -1.339138
 C        -1.809367        -0.627547        -0.975146
 C        -2.093905        -0.240875         0.444535
 C        -0.685028        -0.799259         0.615404
 O        -0.110137        -0.960165         1.904121
 C        -1.094468        -1.926527        -0.428167
 O        -1.950659        -2.922691         0.198609
 H         2.167247         0.572694        -1.146624
 H         1.984982         1.113907         0.519840
 H         2.122536        -0.587838         0.270624
 H        -0.375431         0.545532        -2.351596
 H        -2.685904        -0.689745        -1.646686
 H        -2.281454         0.871520         0.650578
 H        -2.923825        -0.776482         1.060535
 H        -0.267535        -1.945788         2.071169
 H        -0.317012        -2.469974        -0.977827
 H        -2.715304        -3.185219        -0.223211
