19
Iteration:  3629
 C         1.567417         0.572449        -0.161688
 C         0.111501         0.210652        -0.155343
 C        -0.976299         0.702597        -0.837869
 C        -2.072587        -0.256112        -0.528103
 C        -1.981870        -0.516778         1.057742
 C        -0.467116        -1.060744         0.623343
 O         0.375320        -1.911001         1.437117
 C        -1.197160        -1.605695        -0.649333
 O        -2.011484        -2.811449        -0.521856
 H         1.793280         0.499278         0.925191
 H         2.133392        -0.297018        -0.646965
 H         1.744344         1.561170        -0.648066
 H        -0.791760         1.419573        -1.602691
 H        -3.132666        -0.176076        -0.834072
 H        -1.942307         0.465740         1.668968
 H        -2.630618        -1.275493         1.391301
 H         0.229836        -2.783095         1.169948
 H        -0.525035        -1.704981        -1.574112
 H        -1.471369        -3.562299        -0.535224
