19
Iteration:  2199charge 0 multiplicity 1
 C         1.500000         0.639567         0.192243
 C         0.088886         0.265882         0.089167
 C        -1.093475         0.829437        -0.372735
 C        -2.191367        -0.242876        -0.172068
 C        -1.676124        -0.758939         1.238628
 C        -0.453863        -1.209140         0.383657
 O         0.579935        -2.116193         0.566367
 C        -1.306554        -1.423064        -0.836449
 O        -2.061505        -2.713889        -0.609395
 H         2.019015        -0.115843        -0.357576
 H         1.706532         1.671300        -0.302567
 H         1.867101         0.663357         1.261193
 H        -1.271885         1.983960        -0.452452
 H        -3.275982        -0.102144        -0.357610
 H        -1.558898         0.017487         2.054457
 H        -2.189109        -1.692454         1.546215
 H         0.086275        -2.935421         0.308635
 H        -0.733852        -1.245051        -1.759606
 H        -2.309187        -3.039319        -1.400991
