19
Iteration:   749charge 0 multiplicity 1
 C         1.589914         0.779361         0.047268
 C         0.177891         0.190628        -0.024359
 C        -1.113526         0.811702        -0.321564
 C        -2.143800        -0.302594        -0.064360
 C        -1.567799        -0.811488         1.288570
 C        -0.364010        -1.138304         0.417396
 O         0.593379        -2.116333         0.713270
 C        -1.497156        -1.497401        -0.832703
 O        -2.264270        -2.706549        -0.878910
 H         2.191247         0.029998         0.721189
 H         1.956088         0.852697        -0.931947
 H         1.417472         1.785164         0.508416
 H        -1.300393         1.856422        -0.597417
 H        -3.232090        -0.067185        -0.256153
 H        -1.649256         0.013132         2.043926
 H        -2.132210        -1.583153         1.716649
 H         0.454306        -2.357837         1.682767
 H        -1.119156        -1.143904        -1.849416
 H        -1.791030        -3.471970        -0.406727
