19
Iteration:  3877charge 0 multiplicity 1
 C         1.727576         0.422209        -0.159500
 C         0.089576         0.134383        -0.144233
 C        -0.949774         0.694902        -0.811091
 C        -2.053512        -0.344045        -0.688425
 C        -2.018419        -0.464854         0.851176
 C        -0.530713        -0.951343         0.579508
 O         0.196200        -1.644485         1.570062
 C        -1.229695        -1.743788        -0.696804
 O        -1.946484        -2.912738        -0.345716
 H         2.180446        -0.553743        -0.134051
 H         2.013379         0.915748        -1.089615
 H         2.034400         1.069314         0.770314
 H        -0.630352         1.084063        -1.752340
 H        -2.985817        -0.131946        -1.254226
 H        -2.240493         0.507028         1.431861
 H        -2.652503        -1.174914         1.265428
 H         1.085336        -1.533718         1.108320
 H        -0.457839        -2.058335        -1.505436
 H        -1.737525        -3.037632         0.550120
