19
Iteration:  3465
 C         1.530080         0.617136         0.073788
 C         0.073234         0.270064        -0.114938
 C        -1.003512         0.765099        -0.819271
 C        -2.053693        -0.267037        -0.423652
 C        -1.849305        -0.602949         1.099556
 C        -0.462307        -1.054053         0.576395
 O         0.398889        -2.063563         1.130934
 C        -1.225028        -1.588422        -0.706762
 O        -2.025103        -2.825907        -0.516691
 H         1.905621        -0.150660         0.793457
 H         2.065055         0.423284        -0.905252
 H         1.561065         1.646516         0.462624
 H        -1.351317         1.674119        -1.352412
 H        -3.077642        -0.330056        -0.901757
 H        -1.820522         0.255026         1.810523
 H        -2.431731        -1.447805         1.395994
 H         0.817101        -1.479281         1.898078
 H        -0.644194        -1.591275        -1.700415
 H        -2.079110        -3.315704        -1.416573
