19
Iteration:  4872charge 0 multiplicity 1
 C         1.706341         0.334391        -0.124833
 C         0.197400         0.048034        -0.329476
 C        -0.567168         0.224637        -1.395676
 C        -1.848925        -0.610797        -1.024965
 C        -2.105171        -0.279518         0.506518
 C        -0.653556        -0.791555         0.645584
 O        -0.145214        -0.971483         1.893093
 C        -1.141549        -1.906398        -0.433047
 O        -1.921953        -2.919197         0.225404
 H         2.058631         0.361638        -1.133122
 H         2.058986         1.184956         0.507263
 H         2.147760        -0.520340         0.392339
 H        -0.347117         0.511312        -2.424823
 H        -2.724773        -0.721217        -1.674906
 H        -2.135842         0.827339         0.697130
 H        -2.820794        -0.817376         1.038653
 H        -0.085747        -1.897036         2.079688
 H        -0.382720        -2.467083        -1.007817
 H        -2.711000        -3.273733        -0.330067
