19
Iteration:  2243charge 0 multiplicity 1
 C         1.486097         0.737781         0.183266
 C         0.115708         0.116563        -0.100289
 C        -1.095168         0.784237        -0.410251
 C        -2.159904        -0.174557        -0.019989
 C        -1.618861        -0.952500         1.322376
 C        -0.375919        -1.168896         0.322707
 O         0.541306        -2.087603         0.740706
 C        -1.486494        -1.425942        -0.866726
 O        -2.043632        -2.647403        -0.754888
 H         2.206904         0.144808         0.659282
 H         2.040020         1.211327        -0.735751
 H         1.421254         1.689344         0.798576
 H        -1.040160         1.936389        -0.318671
 H        -3.214443         0.063168        -0.132672
 H        -1.341419        -0.189582         2.106159
 H        -2.158723        -1.854938         1.680855
 H         0.239201        -2.988066         0.554950
 H        -1.097737        -1.249993        -1.894723
 H        -2.361075        -2.871028        -1.547643
