19
Iteration:  1829
 C         1.554956         0.641740        -0.200691
 C         0.111431         0.243777         0.082471
 C        -1.051645         0.825256        -0.451651
 C        -2.060610        -0.275206        -0.255939
 C        -1.906651        -0.805722         1.149276
 C        -0.464132        -1.152481         0.603829
 O         0.570220        -1.993149         1.031280
 C        -1.209055        -1.490792        -0.741212
 O        -2.123350        -2.709236        -0.709302
 H         1.588282         0.898548        -1.203048
 H         1.835991         1.410195         0.613674
 H         2.222403        -0.217167        -0.040782
 H        -1.271750         1.833474        -0.815533
 H        -3.089498        -0.128549        -0.661486
 H        -1.805588        -0.053897         1.942698
 H        -2.601122        -1.656398         1.253568
 H         0.155940        -2.932920         0.974206
 H        -0.493605        -1.568922        -1.607712
 H        -2.337688        -3.043514        -1.701667
