19
Iteration:   143charge 0 multiplicity 1
 C         1.562557         0.695240        -0.148522
 C         0.098835         0.244419         0.212210
 C        -1.134225         0.894512        -0.018567
 C        -2.128961        -0.227492        -0.018633
 C        -1.760213        -1.131196         1.221079
 C        -0.376052        -1.202713         0.422649
 O         0.654281        -2.124732         0.666650
 C        -1.362297        -1.316745        -0.777609
 O        -2.120294        -2.562636        -0.908752
 H         1.524093         0.707505        -1.201504
 H         1.766182         1.704544         0.239621
 H         2.177509        -0.134390         0.211121
 H        -1.341638         1.907268        -0.387251
 H        -3.157436        -0.077245        -0.347885
 H        -1.886646        -0.825914         2.278804
 H        -2.335230        -2.038565         1.071938
 H         0.323364        -2.931777         0.983791
 H        -0.986557        -1.020763        -1.756193
 H        -2.373569        -2.624180        -1.803662
