19
Iteration:  3394charge 0 multiplicity 1
 C         1.584252         0.628837        -0.084655
 C         0.120292         0.218871        -0.141825
 C        -1.023061         0.771707        -0.609781
 C        -2.076337        -0.287910        -0.299911
 C        -1.831723        -0.658831         1.197865
 C        -0.433166        -1.107906         0.519380
 O         0.349321        -1.939971         1.175671
 C        -1.245455        -1.548330        -0.708494
 O        -1.994827        -2.824971        -0.765643
 H         1.459054         1.734363        -0.003023
 H         1.974753         0.173627         0.803635
 H         1.967508         0.431231        -1.111338
 H        -1.178400         1.745419        -1.268717
 H        -2.944052        -0.111307        -0.897741
 H        -1.856403         0.184897         1.925956
 H        -2.339481        -1.636046         1.441241
 H        -0.131874        -2.714330         1.745004
 H        -0.805774        -1.364894        -1.733473
 H        -1.911605        -3.265031         0.190470
