19
Iteration:  4668charge 0 multiplicity 1
 C         1.718100         0.504938        -0.092803
 C         0.206383         0.131108        -0.274406
 C        -0.667379         0.211720        -1.346937
 C        -1.883019        -0.649007        -0.987265
 C        -1.990219        -0.249304         0.543074
 C        -0.617639        -0.848561         0.604657
 O        -0.100543        -1.222303         1.841434
 C        -1.184186        -1.917631        -0.468328
 O        -2.073462        -2.855675         0.136625
 H         2.019563         1.511780        -0.501244
 H         1.907476         0.336181         0.993668
 H         2.391398        -0.237432        -0.616722
 H        -0.750866         1.119516        -2.019315
 H        -2.736462        -0.659801        -1.729512
 H        -2.014097         0.831513         0.810618
 H        -2.706893        -0.662644         1.148450
 H         0.720787        -1.724601         1.650624
 H        -0.352273        -2.527232        -0.990156
 H        -1.661862        -3.785598         0.031758
