19
Iteration:  4316
 C         1.614105         0.498321        -0.060885
 C         0.190132         0.117275        -0.286032
 C        -0.851375         0.502169        -1.124993
 C        -1.957288        -0.512088        -0.802469
 C        -1.929335        -0.317902         0.677709
 C        -0.554894        -0.964338         0.560514
 O         0.016966        -1.522711         1.731572
 C        -1.148039        -1.826604        -0.586592
 O        -1.986025        -2.851990        -0.131272
 H         1.976214         0.483022         0.940862
 H         2.255560        -0.256421        -0.531736
 H         1.793378         1.471277        -0.532257
 H        -0.747866         1.088841        -2.041726
 H        -2.956435        -0.603620        -1.286473
 H        -1.910846         0.666384         1.039352
 H        -2.735360        -0.903551         1.206131
 H         0.989312        -1.574374         1.805706
 H        -0.491882        -2.165853        -1.392945
 H        -2.002033        -3.030522         0.809933
