19
Iteration:  3582
 C         1.594209         0.548130         0.034243
 C         0.130723         0.233832        -0.185502
 C        -0.940296         0.732323        -0.744038
 C        -2.067309        -0.215794        -0.435521
 C        -1.903616        -0.538702         1.019400
 C        -0.508916        -1.078666         0.504741
 O         0.453477        -1.816489         1.303585
 C        -1.337718        -1.709286        -0.749932
 O        -2.017034        -2.899025        -0.501411
 H         1.668247         1.627816         0.216447
 H         1.910128        -0.038079         0.869480
 H         2.055289         0.259898        -0.932045
 H        -1.083418         1.540462        -1.541814
 H        -3.022458        -0.069870        -1.027353
 H        -1.946369         0.320460         1.698340
 H        -2.476564        -1.471680         1.339748
 H         0.090398        -1.946545         2.256120
 H        -0.898593        -1.733375        -1.706791
 H        -1.841782        -3.564258        -1.190548
