19
Iteration:   687
 C         1.564004         0.566048        -0.183665
 C         0.116538         0.264983         0.146052
 C        -1.143520         0.879514        -0.201500
 C        -2.173377        -0.181085        -0.042127
 C        -1.827973        -0.871022         1.395102
 C        -0.564214        -1.125016         0.456189
 O         0.385058        -2.178358         0.605979
 C        -1.311900        -1.396626        -0.779366
 O        -1.863896        -2.710144        -0.841945
 H         2.220500         0.957512         0.547550
 H         2.178898        -0.254829        -0.656137
 H         1.809700         1.421586        -0.854803
 H        -1.140587         1.829969        -0.723756
 H        -3.222838         0.057777        -0.286248
 H        -1.653348        -0.015805         2.018120
 H        -2.454108        -1.731117         1.666391
 H         0.993239        -2.046654         1.384416
 H        -0.850312        -1.100148        -1.722895
 H        -1.106626        -3.413231        -0.966729
