19
Iteration:  4003charge 0 multiplicity 1
 C         1.561069         0.583770         0.084794
 C         0.117890         0.238225        -0.237235
 C        -0.807662         0.506358        -1.175083
 C        -1.925603        -0.508219        -0.796424
 C        -1.872770        -0.339598         0.845888
 C        -0.461002        -1.026105         0.538545
 O         0.185747        -1.665177         1.479356
 C        -1.285150        -1.786759        -0.548905
 O        -2.120811        -2.809820        -0.164205
 H         1.710771         1.525964         0.656104
 H         1.970622        -0.226363         0.709310
 H         2.052767         0.663735        -0.832082
 H        -0.995517         1.380336        -1.713480
 H        -2.997232        -0.508914        -1.160827
 H        -1.796573         0.688365         1.145472
 H        -2.656477        -0.973999         1.471860
 H         0.961646        -2.166640         1.166745
 H        -0.577617        -2.221165        -1.237218
 H        -1.606613        -3.429844         0.353369
