19
Iteration:   200charge 0 multiplicity 1
 C         1.527575         0.579743        -0.113732
 C         0.092833         0.276818         0.029419
 C        -1.201339         0.911876        -0.194210
 C        -2.175546        -0.182704         0.192811
 C        -1.669054        -0.968260         1.428804
 C        -0.428717        -1.174057         0.447994
 O         0.377485        -2.215680         0.675973
 C        -1.500909        -1.312741        -0.773709
 O        -1.681737        -2.665767        -1.036879
 H         1.875771         1.330544        -0.828092
 H         2.024806         1.024565         0.691892
 H         2.181292        -0.153501        -0.331241
 H        -1.415769         2.016941        -0.413419
 H        -3.242049         0.156505         0.241274
 H        -1.498383        -0.417225         2.324755
 H        -2.306571        -1.794765         1.590933
 H         0.161678        -2.783245        -0.162883
 H        -1.187761        -0.878346        -1.696402
 H        -2.414409        -2.835451        -1.729001
