19
Iteration:  1411
 C         1.537256         0.584910        -0.113311
 C         0.090898         0.196795        -0.008030
 C        -1.054963         0.769849        -0.566016
 C        -2.049490        -0.313009        -0.376826
 C        -1.867176        -0.683519         1.080490
 C        -0.406975        -1.102183         0.510476
 O         0.350737        -1.946493         1.255927
 C        -1.227943        -1.511942        -0.760729
 O        -2.056601        -2.722017        -0.657340
 H         1.779212         1.617105        -0.020675
 H         2.179471         0.003009         0.583078
 H         1.784181         0.301191        -1.165883
 H        -1.100687         1.816572        -1.009934
 H        -3.051252        -0.217229        -0.861514
 H        -2.091650         0.124284         1.821712
 H        -2.200127        -1.581338         1.484715
 H         0.970443        -2.387657         0.613541
 H        -0.717066        -1.611545        -1.694204
 H        -1.488533        -3.517059        -0.382509
