19
Iteration:  1414charge 0 multiplicity 1
 C         1.535970         0.604848        -0.106326
 C         0.086640         0.199216        -0.031847
 C        -1.066725         0.771895        -0.576561
 C        -2.062155        -0.296204        -0.384832
 C        -1.833868        -0.684996         1.092377
 C        -0.399048        -1.090459         0.508163
 O         0.328643        -1.956493         1.259104
 C        -1.253520        -1.533396        -0.761470
 O        -2.044824        -2.730117        -0.647184
 H         1.783141         1.618825         0.027220
 H         2.171449        -0.019799         0.615624
 H         1.855899         0.238799        -1.046526
 H        -1.086261         1.724182        -1.062788
 H        -3.031208        -0.065418        -0.877198
 H        -1.954540         0.059880         1.851481
 H        -2.159590        -1.684592         1.507893
 H         1.101726        -2.420130         0.750734
 H        -0.742720        -1.512497        -1.798010
 H        -1.539593        -3.462108        -0.495384
