19
Iteration:   563
 C         1.496451         0.686078         0.175245
 C         0.083545         0.218399        -0.154464
 C        -1.111814         0.890039        -0.389216
 C        -2.126878        -0.260939        -0.095389
 C        -1.644889        -0.816223         1.286783
 C        -0.383446        -1.161781         0.361823
 O         0.494161        -2.177844         0.705082
 C        -1.406057        -1.414382        -0.765944
 O        -2.018329        -2.693837        -0.681105
 H         1.674140         1.778704         0.203444
 H         1.731150         0.427984         1.177722
 H         2.375879         0.379990        -0.371908
 H        -1.354990         1.915282        -0.606726
 H        -3.165422         0.019659        -0.200710
 H        -1.541773        -0.173981         2.119209
 H        -2.218410        -1.629774         1.608441
 H         0.178098        -2.965385         0.153703
 H        -1.049389        -1.202415        -1.794723
 H        -2.082719        -3.164375        -1.577776
