19
Iteration:  3281
 C         1.503249         0.661794         0.058821
 C         0.117672         0.212877        -0.044622
 C        -0.975497         0.806272        -0.557604
 C        -2.126503        -0.243667        -0.285584
 C        -1.821845        -0.624057         1.188805
 C        -0.455135        -1.158842         0.479475
 O         0.531747        -2.006603         0.906116
 C        -1.341085        -1.568328        -0.761502
 O        -2.073774        -2.832738        -0.636346
 H         2.281680        -0.087112         0.225261
 H         1.858091         1.209726        -0.820442
 H         1.602535         1.331735         0.897446
 H        -1.150566         1.763385        -0.957067
 H        -3.126688         0.144348        -0.613054
 H        -1.743240         0.195365         1.990218
 H        -2.474040        -1.430100         1.566684
 H         0.107907        -2.658044         1.464032
 H        -0.972777        -1.474931        -1.750072
 H        -1.480657        -3.464956        -1.129908
