19
Iteration:  2433
 C         1.474269         0.720479         0.123972
 C         0.074587         0.241394         0.042626
 C        -1.056754         0.894780        -0.130206
 C        -2.150753        -0.181948        -0.077791
 C        -1.620147        -0.920102         1.239317
 C        -0.356681        -1.216710         0.300070
 O         0.667541        -2.181087         0.634288
 C        -1.438164        -1.430503        -0.859801
 O        -2.178432        -2.694275        -0.824817
 H         1.441201         1.851767        -0.017020
 H         1.914328         0.586480         1.103428
 H         2.092466         0.130528        -0.538170
 H        -1.164992         2.033829        -0.154077
 H        -3.250976        -0.023283        -0.285178
 H        -1.229052        -0.368308         2.154689
 H        -2.320157        -1.854065         1.307700
 H         0.512151        -2.380229         1.653118
 H        -1.329085        -1.301820        -1.927498
 H        -2.561767        -2.828010        -1.795161
